
     RDKit          3D

 54 57  0  0  0  0  0  0  0  0999 V2000
    8.5950   42.1380   12.4650 C   0  0  0  0  0  0  0  0  0  0  0  0
   10.0190   42.6990   12.5060 C   0  0  0  0  0  0  0  0  0  0  0  0
   10.7370   42.0750   13.5580 O   0  0  0  0  0  0  0  0  0  0  0  0
   12.0430   41.7720   13.3990 C   0  0  0  0  0  0  0  0  0  0  0  0
   12.7090   42.1340   12.4290 O   0  0  0  0  0  0  0  0  0  0  0  0
   12.5050   41.0100   14.4800 N   0  0  0  0  0  0  0  0  0  0  0  0
   13.2830   41.6010   15.5750 C   0  0  0  0  0  0  0  0  0  0  0  0
   12.2550   39.5650   14.5560 C   0  0  0  0  0  0  0  0  0  0  0  0
   12.4770   38.8750   13.2300 C   0  0  0  0  0  0  0  0  0  0  0  0
   11.6630   37.9650   12.5800 C   0  0  0  0  0  0  0  0  0  0  0  0
   10.3240   37.4300   12.9770 C   0  0  0  0  0  0  0  0  0  0  0  0
   10.2300   36.2270   13.3030 O   0  0  0  0  0  0  0  0  0  0  0  0
    9.3140   38.1670   12.9630 O   0  0  0  0  0  1  0  0  0  0  0  0
   12.3090   37.5410   11.3990 N   0  0  0  0  0  0  0  0  0  0  0  0
   11.8280   36.5950   10.3880 C   0  0  0  0  0  0  0  0  0  0  0  0
   10.3350   36.7100   10.0550 C   0  0  0  0  0  0  0  0  0  0  0  0
    9.5290   35.5510    9.9220 C   0  0  0  0  0  0  0  0  0  0  0  0
    8.1610   35.6520    9.6170 C   0  0  0  0  0  0  0  0  0  0  0  0
    7.5730   36.9140    9.4370 C   0  0  0  0  0  0  0  0  0  0  0  0
    8.3520   38.0790    9.5620 C   0  0  0  0  0  0  0  0  0  0  0  0
    7.7440   39.3390    9.3770 C   0  0  0  0  0  0  0  0  0  0  0  0
    8.5040   40.5160    9.4970 C   0  0  0  0  0  0  0  0  0  0  0  0
    9.8740   40.4370    9.8020 C   0  0  0  0  0  0  0  0  0  0  0  0
   10.4870   39.1830    9.9870 C   0  0  0  0  0  0  0  0  0  0  0  0
    9.7370   37.9860    9.8710 C   0  0  0  0  0  0  0  0  0  0  0  0
   13.5370   38.1800   11.2940 C   0  0  0  0  0  0  0  0  0  0  0  0
   14.5600   38.0980   10.3260 C   0  0  0  0  0  0  0  0  0  0  0  0
   15.7200   38.8790   10.4640 C   0  0  0  0  0  0  0  0  0  0  0  0
   15.8530   39.7390   11.5680 C   0  0  0  0  0  0  0  0  0  0  0  0
   16.9670   40.4970   11.7050 F   0  0  0  0  0  0  0  0  0  0  0  0
   14.8290   39.8120   12.5330 C   0  0  0  0  0  0  0  0  0  0  0  0
   13.6520   39.0330   12.4240 C   0  0  0  0  0  0  0  0  0  0  0  0
    8.2281   41.9935   13.4919 H   0  0  0  0  0  0  0  0  0  0  0  0
    7.9377   42.8444   11.9368 H   0  0  0  0  0  0  0  0  0  0  0  0
    8.5961   41.1731   11.9368 H   0  0  0  0  0  0  0  0  0  0  0  0
   10.5212   42.4979   11.5482 H   0  0  0  0  0  0  0  0  0  0  0  0
    9.9831   43.7850   12.6770 H   0  0  0  0  0  0  0  0  0  0  0  0
   12.8612   41.2806   16.5390 H   0  0  0  0  0  0  0  0  0  0  0  0
   14.3288   41.2675   15.5034 H   0  0  0  0  0  0  0  0  0  0  0  0
   13.2422   42.6979   15.5034 H   0  0  0  0  0  0  0  0  0  0  0  0
   12.9352   39.1269   15.3012 H   0  0  0  0  0  0  0  0  0  0  0  0
   11.2021   39.4197   14.8393 H   0  0  0  0  0  0  0  0  0  0  0  0
   12.3985   36.7641    9.4628 H   0  0  0  0  0  0  0  0  0  0  0  0
   11.9733   35.5902   10.8115 H   0  0  0  0  0  0  0  0  0  0  0  0
    9.9814   34.5578   10.0597 H   0  0  0  0  0  0  0  0  0  0  0  0
    7.5508   34.7420    9.5193 H   0  0  0  0  0  0  0  0  0  0  0  0
    6.5021   36.9921    9.1980 H   0  0  0  0  0  0  0  0  0  0  0  0
    6.6720   39.4006    9.1381 H   0  0  0  0  0  0  0  0  0  0  0  0
    8.0274   41.4968    9.3525 H   0  0  0  0  0  0  0  0  0  0  0  0
   10.4688   41.3575    9.8964 H   0  0  0  0  0  0  0  0  0  0  0  0
   11.5599   39.1318   10.2242 H   0  0  0  0  0  0  0  0  0  0  0  0
   14.4497   37.4234    9.4641 H   0  0  0  0  0  0  0  0  0  0  0  0
   16.5202   38.8177    9.7117 H   0  0  0  0  0  0  0  0  0  0  0  0
   14.9468   40.4901   13.3911 H   0  0  0  0  0  0  0  0  0  0  0  0
  1  2  1  0
  2  3  1  0
  3  4  1  0
  4  5  2  0
  4  6  1  0
  6  7  1  0
  6  8  1  0
  8  9  1  0
  9 10  2  0
 10 11  1  0
 11 12  2  0
 11 13  1  0
 10 14  1  0
 14 15  1  0
 15 16  1  0
 16 17  2  0
 17 18  1  0
 18 19  2  0
 19 20  1  0
 20 21  2  0
 21 22  1  0
 22 23  2  0
 23 24  1  0
 24 25  2  0
 14 26  1  0
 26 27  2  0
 27 28  1  0
 28 29  2  0
 29 30  1  0
 29 31  1  0
 31 32  2  0
 32  9  1  0
 25 16  1  0
 32 26  1  0
 25 20  1  0
  1 33  1  0
  1 34  1  0
  1 35  1  0
  2 36  1  0
  2 37  1  0
  7 38  1  0
  7 39  1  0
  7 40  1  0
  8 41  1  0
  8 42  1  0
 15 43  1  0
 15 44  1  0
 17 45  1  0
 18 46  1  0
 19 47  1  0
 21 48  1  0
 22 49  1  0
 23 50  1  0
 24 51  1  0
 27 52  1  0
 28 53  1  0
 31 54  1  0
M  CHG  1  13  -1
M  END
>  <meeko>  (1) 
{"free_energy": -4.51, "intermolecular_energy": -6.9, "internal_energy": -2.51, "cluster_size": 50, "cluster_id": 39, "rank_in_cluster": 47}

$$$$

     RDKit          3D

 54 57  0  0  0  0  0  0  0  0999 V2000
    6.8260   36.6980   17.0030 C   0  0  0  0  0  0  0  0  0  0  0  0
    7.6010   37.0270   18.2810 C   0  0  0  0  0  0  0  0  0  0  0  0
    8.0530   38.3700   18.2200 O   0  0  0  0  0  0  0  0  0  0  0  0
    9.1260   38.6890   17.4650 C   0  0  0  0  0  0  0  0  0  0  0  0
    9.2490   39.7690   16.8840 O   0  0  0  0  0  0  0  0  0  0  0  0
   10.0500   37.6360   17.4540 N   0  0  0  0  0  0  0  0  0  0  0  0
   11.0100   37.4280   18.5440 C   0  0  0  0  0  0  0  0  0  0  0  0
   10.1220   36.6980   16.3260 C   0  0  0  0  0  0  0  0  0  0  0  0
   10.8000   37.3040   15.1200 C   0  0  0  0  0  0  0  0  0  0  0  0
   10.5270   37.1010   13.7780 C   0  0  0  0  0  0  0  0  0  0  0  0
    9.4700   36.2580   13.1370 C   0  0  0  0  0  0  0  0  0  0  0  0
    9.6430   35.8700   11.9620 O   0  0  0  0  0  0  0  0  0  0  0  0
    8.4260   35.9640   13.7590 O   0  0  0  0  0  1  0  0  0  0  0  0
   11.4600   37.8280   13.0090 N   0  0  0  0  0  0  0  0  0  0  0  0
   11.5590   37.9260   11.5500 C   0  0  0  0  0  0  0  0  0  0  0  0
   10.3190   38.5080   10.8580 C   0  0  0  0  0  0  0  0  0  0  0  0
    9.6830   37.8100    9.8010 C   0  0  0  0  0  0  0  0  0  0  0  0
    8.5470   38.3390    9.1640 C   0  0  0  0  0  0  0  0  0  0  0  0
    8.0270   39.5780    9.5710 C   0  0  0  0  0  0  0  0  0  0  0  0
    8.6420   40.2920   10.6170 C   0  0  0  0  0  0  0  0  0  0  0  0
    8.1070   41.5350   11.0120 C   0  0  0  0  0  0  0  0  0  0  0  0
    8.7050   42.2660   12.0550 C   0  0  0  0  0  0  0  0  0  0  0  0
    9.8410   41.7530   12.7050 C   0  0  0  0  0  0  0  0  0  0  0  0
   10.3810   40.5120   12.3150 C   0  0  0  0  0  0  0  0  0  0  0  0
    9.7910   39.7630   11.2670 C   0  0  0  0  0  0  0  0  0  0  0  0
   12.3310   38.4980   13.8600 C   0  0  0  0  0  0  0  0  0  0  0  0
   13.4350   39.3370   13.6030 C   0  0  0  0  0  0  0  0  0  0  0  0
   14.1500   39.9000   14.6730 C   0  0  0  0  0  0  0  0  0  0  0  0
   13.7590   39.6240   15.9950 C   0  0  0  0  0  0  0  0  0  0  0  0
   14.4420   40.1670   17.0310 F   0  0  0  0  0  0  0  0  0  0  0  0
   12.6570   38.7820   16.2430 C   0  0  0  0  0  0  0  0  0  0  0  0
   11.9210   38.1950   15.1850 C   0  0  0  0  0  0  0  0  0  0  0  0
    5.8431   36.2808   17.2674 H   0  0  0  0  0  0  0  0  0  0  0  0
    6.6880   37.6151   16.4115 H   0  0  0  0  0  0  0  0  0  0  0  0
    7.3899   35.9617   16.4115 H   0  0  0  0  0  0  0  0  0  0  0  0
    6.9431   36.8996   19.1533 H   0  0  0  0  0  0  0  0  0  0  0  0
    8.4636   36.3508   18.3744 H   0  0  0  0  0  0  0  0  0  0  0  0
   10.4969   37.5392   19.5107 H   0  0  0  0  0  0  0  0  0  0  0  0
   11.4362   36.4167   18.4692 H   0  0  0  0  0  0  0  0  0  0  0  0
   11.8166   38.1722   18.4692 H   0  0  0  0  0  0  0  0  0  0  0  0
   10.6881   35.8089   16.6407 H   0  0  0  0  0  0  0  0  0  0  0  0
    9.0928   36.4374   16.0383 H   0  0  0  0  0  0  0  0  0  0  0  0
   12.4188   38.5679   11.3078 H   0  0  0  0  0  0  0  0  0  0  0  0
   11.6668   36.8967   11.1773 H   0  0  0  0  0  0  0  0  0  0  0  0
   10.0845   36.8395    9.4741 H   0  0  0  0  0  0  0  0  0  0  0  0
    8.0655   37.7822    8.3466 H   0  0  0  0  0  0  0  0  0  0  0  0
    7.1381   39.9913    9.0721 H   0  0  0  0  0  0  0  0  0  0  0  0
    7.2180   41.9352   10.5025 H   0  0  0  0  0  0  0  0  0  0  0  0
    8.2850   43.2356   12.3607 H   0  0  0  0  0  0  0  0  0  0  0  0
   10.3097   42.3227   13.5209 H   0  0  0  0  0  0  0  0  0  0  0  0
   11.2706   40.1200   12.8297 H   0  0  0  0  0  0  0  0  0  0  0  0
   13.7356   39.5501   12.5666 H   0  0  0  0  0  0  0  0  0  0  0  0
   15.0124   40.5542   14.4774 H   0  0  0  0  0  0  0  0  0  0  0  0
   12.3615   38.5758   17.2823 H   0  0  0  0  0  0  0  0  0  0  0  0
  1  2  1  0
  2  3  1  0
  3  4  1  0
  4  5  2  0
  4  6  1  0
  6  7  1  0
  6  8  1  0
  8  9  1  0
  9 10  2  0
 10 11  1  0
 11 12  2  0
 11 13  1  0
 10 14  1  0
 14 15  1  0
 15 16  1  0
 16 17  2  0
 17 18  1  0
 18 19  2  0
 19 20  1  0
 20 21  2  0
 21 22  1  0
 22 23  2  0
 23 24  1  0
 24 25  2  0
 14 26  1  0
 26 27  2  0
 27 28  1  0
 28 29  2  0
 29 30  1  0
 29 31  1  0
 31 32  2  0
 32  9  1  0
 25 16  1  0
 32 26  1  0
 25 20  1  0
  1 33  1  0
  1 34  1  0
  1 35  1  0
  2 36  1  0
  2 37  1  0
  7 38  1  0
  7 39  1  0
  7 40  1  0
  8 41  1  0
  8 42  1  0
 15 43  1  0
 15 44  1  0
 17 45  1  0
 18 46  1  0
 19 47  1  0
 21 48  1  0
 22 49  1  0
 23 50  1  0
 24 51  1  0
 27 52  1  0
 28 53  1  0
 31 54  1  0
M  CHG  1  13  -1
M  END
>  <meeko>  (2) 
{"free_energy": -4.62, "intermolecular_energy": -7.0, "internal_energy": -2.07, "cluster_size": 31, "cluster_id": 41, "rank_in_cluster": 29}

$$$$

     RDKit          3D

 54 57  0  0  0  0  0  0  0  0999 V2000
    6.5980   35.5020   18.8800 C   0  0  0  0  0  0  0  0  0  0  0  0
    6.3490   35.1180   17.4200 C   0  0  0  0  0  0  0  0  0  0  0  0
    7.1170   35.9610   16.5770 O   0  0  0  0  0  0  0  0  0  0  0  0
    8.4650   35.8990   16.6050 C   0  0  0  0  0  0  0  0  0  0  0  0
    9.1580   36.5560   17.3840 O   0  0  0  0  0  0  0  0  0  0  0  0
    8.9360   34.9940   15.6450 N   0  0  0  0  0  0  0  0  0  0  0  0
    9.0250   33.5530   15.9080 C   0  0  0  0  0  0  0  0  0  0  0  0
    9.3940   35.4520   14.3260 C   0  0  0  0  0  0  0  0  0  0  0  0
   10.4140   36.5610   14.4280 C   0  0  0  0  0  0  0  0  0  0  0  0
   10.5270   37.7070   13.6620 C   0  0  0  0  0  0  0  0  0  0  0  0
    9.6620   38.1960   12.5430 C   0  0  0  0  0  0  0  0  0  0  0  0
    9.5160   39.4280   12.3910 O   0  0  0  0  0  0  0  0  0  0  0  0
    9.0810   37.3870   11.7870 O   0  0  0  0  0  1  0  0  0  0  0  0
   11.6720   38.4210   14.0770 N   0  0  0  0  0  0  0  0  0  0  0  0
   12.1870   39.6940   13.5650 C   0  0  0  0  0  0  0  0  0  0  0  0
   13.4590   39.5790   12.7150 C   0  0  0  0  0  0  0  0  0  0  0  0
   14.7360   39.4970   13.3260 C   0  0  0  0  0  0  0  0  0  0  0  0
   15.9040   39.3910   12.5510 C   0  0  0  0  0  0  0  0  0  0  0  0
   15.8170   39.3690   11.1500 C   0  0  0  0  0  0  0  0  0  0  0  0
   14.5610   39.4520   10.5190 C   0  0  0  0  0  0  0  0  0  0  0  0
   14.4930   39.4280    9.1110 C   0  0  0  0  0  0  0  0  0  0  0  0
   13.2500   39.5100    8.4600 C   0  0  0  0  0  0  0  0  0  0  0  0
   12.0700   39.6140    9.2170 C   0  0  0  0  0  0  0  0  0  0  0  0
   12.1300   39.6390   10.6240 C   0  0  0  0  0  0  0  0  0  0  0  0
   13.3750   39.5570   11.2960 C   0  0  0  0  0  0  0  0  0  0  0  0
   12.2920   37.7300   15.1110 C   0  0  0  0  0  0  0  0  0  0  0  0
   13.4580   38.0010   15.8550 C   0  0  0  0  0  0  0  0  0  0  0  0
   13.8610   37.1190   16.8720 C   0  0  0  0  0  0  0  0  0  0  0  0
   13.0970   35.9700   17.1410 C   0  0  0  0  0  0  0  0  0  0  0  0
   13.4780   35.1180   18.1220 F   0  0  0  0  0  0  0  0  0  0  0  0
   11.9350   35.7050   16.3900 C   0  0  0  0  0  0  0  0  0  0  0  0
   11.5070   36.5710   15.3560 C   0  0  0  0  0  0  0  0  0  0  0  0
    6.1193   34.7637   19.5401 H   0  0  0  0  0  0  0  0  0  0  0  0
    7.6805   35.5205   19.0748 H   0  0  0  0  0  0  0  0  0  0  0  0
    6.1733   36.4978   19.0748 H   0  0  0  0  0  0  0  0  0  0  0  0
    6.6442   34.0705   17.2599 H   0  0  0  0  0  0  0  0  0  0  0  0
    5.2809   35.2353   17.1847 H   0  0  0  0  0  0  0  0  0  0  0  0
    9.0358   33.3785   16.9940 H   0  0  0  0  0  0  0  0  0  0  0  0
    8.1565   33.0448   15.4636 H   0  0  0  0  0  0  0  0  0  0  0  0
    9.9494   33.1556   15.4636 H   0  0  0  0  0  0  0  0  0  0  0  0
    9.8469   34.6024   13.7939 H   0  0  0  0  0  0  0  0  0  0  0  0
    8.5213   35.8455   13.7842 H   0  0  0  0  0  0  0  0  0  0  0  0
   11.4032   40.1563   12.9470 H   0  0  0  0  0  0  0  0  0  0  0  0
   12.4568   40.2952   14.4458 H   0  0  0  0  0  0  0  0  0  0  0  0
   14.8138   39.5166   14.4231 H   0  0  0  0  0  0  0  0  0  0  0  0
   16.8860   39.3253   13.0422 H   0  0  0  0  0  0  0  0  0  0  0  0
   16.7315   39.2868   10.5442 H   0  0  0  0  0  0  0  0  0  0  0  0
   15.4166   39.3448    8.5194 H   0  0  0  0  0  0  0  0  0  0  0  0
   13.2007   39.4928    7.3612 H   0  0  0  0  0  0  0  0  0  0  0  0
   11.0964   39.6761    8.7087 H   0  0  0  0  0  0  0  0  0  0  0  0
   11.2011   39.7230   11.2071 H   0  0  0  0  0  0  0  0  0  0  0  0
   14.0517   38.9017   15.6398 H   0  0  0  0  0  0  0  0  0  0  0  0
   14.7703   37.3267   17.4551 H   0  0  0  0  0  0  0  0  0  0  0  0
   11.3461   34.8030   16.6128 H   0  0  0  0  0  0  0  0  0  0  0  0
  1  2  1  0
  2  3  1  0
  3  4  1  0
  4  5  2  0
  4  6  1  0
  6  7  1  0
  6  8  1  0
  8  9  1  0
  9 10  2  0
 10 11  1  0
 11 12  2  0
 11 13  1  0
 10 14  1  0
 14 15  1  0
 15 16  1  0
 16 17  2  0
 17 18  1  0
 18 19  2  0
 19 20  1  0
 20 21  2  0
 21 22  1  0
 22 23  2  0
 23 24  1  0
 24 25  2  0
 14 26  1  0
 26 27  2  0
 27 28  1  0
 28 29  2  0
 29 30  1  0
 29 31  1  0
 31 32  2  0
 32  9  1  0
 25 16  1  0
 32 26  1  0
 25 20  1  0
  1 33  1  0
  1 34  1  0
  1 35  1  0
  2 36  1  0
  2 37  1  0
  7 38  1  0
  7 39  1  0
  7 40  1  0
  8 41  1  0
  8 42  1  0
 15 43  1  0
 15 44  1  0
 17 45  1  0
 18 46  1  0
 19 47  1  0
 21 48  1  0
 22 49  1  0
 23 50  1  0
 24 51  1  0
 27 52  1  0
 28 53  1  0
 31 54  1  0
M  CHG  1  13  -1
M  END
>  <meeko>  (3) 
{"free_energy": -4.29, "intermolecular_energy": -6.68, "internal_energy": -1.91, "cluster_size": 52, "cluster_id": 33, "rank_in_cluster": 49}

$$$$

     RDKit          3D

 54 57  0  0  0  0  0  0  0  0999 V2000
    7.3640   37.8550    8.1670 C   0  0  0  0  0  0  0  0  0  0  0  0
    8.4290   37.3690    9.1520 C   0  0  0  0  0  0  0  0  0  0  0  0
    7.8190   37.0960   10.4030 O   0  0  0  0  0  0  0  0  0  0  0  0
    8.3980   36.2320   11.2640 C   0  0  0  0  0  0  0  0  0  0  0  0
    7.7800   35.3390   11.8460 O   0  0  0  0  0  0  0  0  0  0  0  0
    9.7680   36.4990   11.3810 N   0  0  0  0  0  0  0  0  0  0  0  0
   10.7900   35.5080   11.0250 C   0  0  0  0  0  0  0  0  0  0  0  0
   10.2520   37.7860   11.8990 C   0  0  0  0  0  0  0  0  0  0  0  0
   10.1060   37.8910   13.3980 C   0  0  0  0  0  0  0  0  0  0  0  0
    9.8340   36.8910   14.3150 C   0  0  0  0  0  0  0  0  0  0  0  0
    9.6420   35.4230   14.0960 C   0  0  0  0  0  0  0  0  0  0  0  0
    8.4920   34.9450   14.2090 O   0  0  0  0  0  0  0  0  0  0  0  0
   10.6150   34.6870   13.8260 O   0  0  0  0  0  1  0  0  0  0  0  0
    9.7250   37.4680   15.5980 N   0  0  0  0  0  0  0  0  0  0  0  0
    9.4570   36.8020   16.8760 C   0  0  0  0  0  0  0  0  0  0  0  0
    7.9740   36.7230   17.2630 C   0  0  0  0  0  0  0  0  0  0  0  0
    6.9740   36.5470   16.2740 C   0  0  0  0  0  0  0  0  0  0  0  0
    5.6150   36.4740   16.6240 C   0  0  0  0  0  0  0  0  0  0  0  0
    5.2300   36.5770   17.9710 C   0  0  0  0  0  0  0  0  0  0  0  0
    6.2040   36.7540   18.9710 C   0  0  0  0  0  0  0  0  0  0  0  0
    5.7990   36.8560   20.3180 C   0  0  0  0  0  0  0  0  0  0  0  0
    6.7550   37.0340   21.3340 C   0  0  0  0  0  0  0  0  0  0  0  0
    8.1200   37.1080   21.0050 C   0  0  0  0  0  0  0  0  0  0  0  0
    8.5310   37.0070   19.6620 C   0  0  0  0  0  0  0  0  0  0  0  0
    7.5810   36.8280   18.6260 C   0  0  0  0  0  0  0  0  0  0  0  0
    9.9270   38.8380   15.5030 C   0  0  0  0  0  0  0  0  0  0  0  0
    9.9110   39.8610   16.4740 C   0  0  0  0  0  0  0  0  0  0  0  0
   10.1630   41.1900   16.0960 C   0  0  0  0  0  0  0  0  0  0  0  0
   10.4300   41.4930   14.7490 C   0  0  0  0  0  0  0  0  0  0  0  0
   10.6770   42.7720   14.3790 F   0  0  0  0  0  0  0  0  0  0  0  0
   10.4410   40.4670   13.7850 C   0  0  0  0  0  0  0  0  0  0  0  0
   10.1850   39.1190   14.1340 C   0  0  0  0  0  0  0  0  0  0  0  0
    6.5013   38.2487    8.7245 H   0  0  0  0  0  0  0  0  0  0  0  0
    7.7853   38.6500    7.5342 H   0  0  0  0  0  0  0  0  0  0  0  0
    7.0396   37.0158    7.5342 H   0  0  0  0  0  0  0  0  0  0  0  0
    8.8980   36.4528    8.7639 H   0  0  0  0  0  0  0  0  0  0  0  0
    9.1974   38.1460    9.2778 H   0  0  0  0  0  0  0  0  0  0  0  0
   11.2260   35.0852   11.9422 H   0  0  0  0  0  0  0  0  0  0  0  0
   10.3298   34.7032   10.4330 H   0  0  0  0  0  0  0  0  0  0  0  0
   11.5803   35.9927   10.4330 H   0  0  0  0  0  0  0  0  0  0  0  0
   11.3151   37.8950   11.6385 H   0  0  0  0  0  0  0  0  0  0  0  0
    9.6438   38.5821   11.4448 H   0  0  0  0  0  0  0  0  0  0  0  0
    9.8500   35.7763   16.8162 H   0  0  0  0  0  0  0  0  0  0  0  0
    9.9468   37.4105   17.6505 H   0  0  0  0  0  0  0  0  0  0  0  0
    7.2661   36.4663   15.2166 H   0  0  0  0  0  0  0  0  0  0  0  0
    4.8526   36.3362   15.8431 H   0  0  0  0  0  0  0  0  0  0  0  0
    4.1661   36.5192   18.2443 H   0  0  0  0  0  0  0  0  0  0  0  0
    4.7311   36.7961   20.5750 H   0  0  0  0  0  0  0  0  0  0  0  0
    6.4356   37.1151   22.3835 H   0  0  0  0  0  0  0  0  0  0  0  0
    8.8689   37.2452   21.7989 H   0  0  0  0  0  0  0  0  0  0  0  0
    9.6011   37.0677   19.4144 H   0  0  0  0  0  0  0  0  0  0  0  0
    9.7014   39.6182   17.5262 H   0  0  0  0  0  0  0  0  0  0  0  0
   10.1516   41.9905   16.8504 H   0  0  0  0  0  0  0  0  0  0  0  0
   10.6536   40.7187   12.7355 H   0  0  0  0  0  0  0  0  0  0  0  0
  1  2  1  0
  2  3  1  0
  3  4  1  0
  4  5  2  0
  4  6  1  0
  6  7  1  0
  6  8  1  0
  8  9  1  0
  9 10  2  0
 10 11  1  0
 11 12  2  0
 11 13  1  0
 10 14  1  0
 14 15  1  0
 15 16  1  0
 16 17  2  0
 17 18  1  0
 18 19  2  0
 19 20  1  0
 20 21  2  0
 21 22  1  0
 22 23  2  0
 23 24  1  0
 24 25  2  0
 14 26  1  0
 26 27  2  0
 27 28  1  0
 28 29  2  0
 29 30  1  0
 29 31  1  0
 31 32  2  0
 32  9  1  0
 25 16  1  0
 32 26  1  0
 25 20  1  0
  1 33  1  0
  1 34  1  0
  1 35  1  0
  2 36  1  0
  2 37  1  0
  7 38  1  0
  7 39  1  0
  7 40  1  0
  8 41  1  0
  8 42  1  0
 15 43  1  0
 15 44  1  0
 17 45  1  0
 18 46  1  0
 19 47  1  0
 21 48  1  0
 22 49  1  0
 23 50  1  0
 24 51  1  0
 27 52  1  0
 28 53  1  0
 31 54  1  0
M  CHG  1  13  -1
M  END
>  <meeko>  (4) 
{"free_energy": -5.68, "intermolecular_energy": -8.07, "internal_energy": -1.44, "cluster_size": 136, "cluster_id": 23, "rank_in_cluster": 72}

$$$$

     RDKit          3D

 54 57  0  0  0  0  0  0  0  0999 V2000
   10.8060   40.8260   19.1050 C   0  0  0  0  0  0  0  0  0  0  0  0
   11.4960   39.9330   18.0710 C   0  0  0  0  0  0  0  0  0  0  0  0
   11.4990   40.5900   16.8140 O   0  0  0  0  0  0  0  0  0  0  0  0
   10.3730   40.6350   16.0710 C   0  0  0  0  0  0  0  0  0  0  0  0
    9.2700   40.9360   16.5300 O   0  0  0  0  0  0  0  0  0  0  0  0
   10.6500   40.3040   14.7380 N   0  0  0  0  0  0  0  0  0  0  0  0
    9.6490   40.4440   13.6750 C   0  0  0  0  0  0  0  0  0  0  0  0
   11.9590   39.7670   14.3430 C   0  0  0  0  0  0  0  0  0  0  0  0
   12.3150   38.5110   15.1020 C   0  0  0  0  0  0  0  0  0  0  0  0
   11.6460   37.3000   15.1360 C   0  0  0  0  0  0  0  0  0  0  0  0
   10.4080   36.8730   14.4120 C   0  0  0  0  0  0  0  0  0  0  0  0
    9.3040   37.3080   14.8040 O   0  0  0  0  0  0  0  0  0  0  0  0
   10.4760   36.0820   13.4460 O   0  0  0  0  0  1  0  0  0  0  0  0
   12.3140   36.4370   16.0320 N   0  0  0  0  0  0  0  0  0  0  0  0
   11.9790   35.0550   16.3840 C   0  0  0  0  0  0  0  0  0  0  0  0
   10.4970   34.6900   16.2280 C   0  0  0  0  0  0  0  0  0  0  0  0
   10.0830   33.7230   15.2780 C   0  0  0  0  0  0  0  0  0  0  0  0
    8.7260   33.3860   15.1320 C   0  0  0  0  0  0  0  0  0  0  0  0
    7.7570   34.0120   15.9320 C   0  0  0  0  0  0  0  0  0  0  0  0
    8.1430   34.9770   16.8820 C   0  0  0  0  0  0  0  0  0  0  0  0
    7.1550   35.5960   17.6770 C   0  0  0  0  0  0  0  0  0  0  0  0
    7.5170   36.5630   18.6310 C   0  0  0  0  0  0  0  0  0  0  0  0
    8.8700   36.9130   18.7930 C   0  0  0  0  0  0  0  0  0  0  0  0
    9.8600   36.2990   18.0020 C   0  0  0  0  0  0  0  0  0  0  0  0
    9.5130   35.3230   17.0360 C   0  0  0  0  0  0  0  0  0  0  0  0
   13.4100   37.0970   16.5720 C   0  0  0  0  0  0  0  0  0  0  0  0
   14.3800   36.6940   17.5120 C   0  0  0  0  0  0  0  0  0  0  0  0
   15.4080   37.5780   17.8820 C   0  0  0  0  0  0  0  0  0  0  0  0
   15.4620   38.8600   17.3100 C   0  0  0  0  0  0  0  0  0  0  0  0
   16.4530   39.7160   17.6590 F   0  0  0  0  0  0  0  0  0  0  0  0
   14.4880   39.2580   16.3740 C   0  0  0  0  0  0  0  0  0  0  0  0
   13.4360   38.3920   15.9870 C   0  0  0  0  0  0  0  0  0  0  0  0
   11.0691   40.4855   20.1174 H   0  0  0  0  0  0  0  0  0  0  0  0
   11.1372   41.8663   18.9704 H   0  0  0  0  0  0  0  0  0  0  0  0
    9.7158   40.7680   18.9704 H   0  0  0  0  0  0  0  0  0  0  0  0
   12.5316   39.7377   18.3863 H   0  0  0  0  0  0  0  0  0  0  0  0
   10.9550   38.9788   17.9876 H   0  0  0  0  0  0  0  0  0  0  0  0
    8.6544   40.5831   14.1239 H   0  0  0  0  0  0  0  0  0  0  0  0
    9.8953   41.3164   13.0520 H   0  0  0  0  0  0  0  0  0  0  0  0
    9.6465   39.5375   13.0520 H   0  0  0  0  0  0  0  0  0  0  0  0
   11.9371   39.5364   13.2677 H   0  0  0  0  0  0  0  0  0  0  0  0
   12.7191   40.5276   14.5749 H   0  0  0  0  0  0  0  0  0  0  0  0
   12.5657   34.3859   15.7374 H   0  0  0  0  0  0  0  0  0  0  0  0
   12.2135   34.9433   17.4529 H   0  0  0  0  0  0  0  0  0  0  0  0
   10.8349   33.2287   14.6453 H   0  0  0  0  0  0  0  0  0  0  0  0
    8.4234   32.6317   14.3908 H   0  0  0  0  0  0  0  0  0  0  0  0
    6.6953   33.7484   15.8166 H   0  0  0  0  0  0  0  0  0  0  0  0
    6.0976   35.3208   17.5497 H   0  0  0  0  0  0  0  0  0  0  0  0
    6.7448   37.0445   19.2489 H   0  0  0  0  0  0  0  0  0  0  0  0
    9.1553   37.6686   19.5398 H   0  0  0  0  0  0  0  0  0  0  0  0
   10.9149   36.5805   18.1358 H   0  0  0  0  0  0  0  0  0  0  0  0
   14.3324   35.6885   17.9556 H   0  0  0  0  0  0  0  0  0  0  0  0
   16.1665   37.2677   18.6158 H   0  0  0  0  0  0  0  0  0  0  0  0
   14.5455   40.2643   15.9334 H   0  0  0  0  0  0  0  0  0  0  0  0
  1  2  1  0
  2  3  1  0
  3  4  1  0
  4  5  2  0
  4  6  1  0
  6  7  1  0
  6  8  1  0
  8  9  1  0
  9 10  2  0
 10 11  1  0
 11 12  2  0
 11 13  1  0
 10 14  1  0
 14 15  1  0
 15 16  1  0
 16 17  2  0
 17 18  1  0
 18 19  2  0
 19 20  1  0
 20 21  2  0
 21 22  1  0
 22 23  2  0
 23 24  1  0
 24 25  2  0
 14 26  1  0
 26 27  2  0
 27 28  1  0
 28 29  2  0
 29 30  1  0
 29 31  1  0
 31 32  2  0
 32  9  1  0
 25 16  1  0
 32 26  1  0
 25 20  1  0
  1 33  1  0
  1 34  1  0
  1 35  1  0
  2 36  1  0
  2 37  1  0
  7 38  1  0
  7 39  1  0
  7 40  1  0
  8 41  1  0
  8 42  1  0
 15 43  1  0
 15 44  1  0
 17 45  1  0
 18 46  1  0
 19 47  1  0
 21 48  1  0
 22 49  1  0
 23 50  1  0
 24 51  1  0
 27 52  1  0
 28 53  1  0
 31 54  1  0
M  CHG  1  13  -1
M  END
>  <meeko>  (5) 
{"free_energy": -3.77, "intermolecular_energy": -6.16, "internal_energy": -2.33, "cluster_size": 38, "cluster_id": 116, "rank_in_cluster": 36}

$$$$

     RDKit          3D

 54 57  0  0  0  0  0  0  0  0999 V2000
   14.8850   42.2900   11.5320 C   0  0  0  0  0  0  0  0  0  0  0  0
   16.3490   41.9860   11.2060 C   0  0  0  0  0  0  0  0  0  0  0  0
   16.4610   41.6400    9.8350 O   0  0  0  0  0  0  0  0  0  0  0  0
   16.8780   40.4060    9.4810 C   0  0  0  0  0  0  0  0  0  0  0  0
   17.8820   39.8680    9.9530 O   0  0  0  0  0  0  0  0  0  0  0  0
   16.0140   39.8490    8.5290 N   0  0  0  0  0  0  0  0  0  0  0  0
   15.9050   40.3840    7.1680 C   0  0  0  0  0  0  0  0  0  0  0  0
   15.1470   38.7110    8.8610 C   0  0  0  0  0  0  0  0  0  0  0  0
   14.4400   38.8960   10.1830 C   0  0  0  0  0  0  0  0  0  0  0  0
   13.1510   39.3370   10.4210 C   0  0  0  0  0  0  0  0  0  0  0  0
   12.0790   39.7230    9.4510 C   0  0  0  0  0  0  0  0  0  0  0  0
   11.5680   38.8340    8.7370 O   0  0  0  0  0  0  0  0  0  0  0  0
   11.7170   40.9150    9.3430 O   0  0  0  0  0  1  0  0  0  0  0  0
   12.9470   39.4120   11.8160 N   0  0  0  0  0  0  0  0  0  0  0  0
   11.7380   39.8170   12.5390 C   0  0  0  0  0  0  0  0  0  0  0  0
   10.9760   38.6690   13.2140 C   0  0  0  0  0  0  0  0  0  0  0  0
   11.0580   38.4680   14.6150 C   0  0  0  0  0  0  0  0  0  0  0  0
   10.3610   37.4180   15.2380 C   0  0  0  0  0  0  0  0  0  0  0  0
    9.5710   36.5470   14.4710 C   0  0  0  0  0  0  0  0  0  0  0  0
    9.4740   36.7250   13.0780 C   0  0  0  0  0  0  0  0  0  0  0  0
    8.6760   35.8400   12.3230 C   0  0  0  0  0  0  0  0  0  0  0  0
    8.5660   35.9980   10.9300 C   0  0  0  0  0  0  0  0  0  0  0  0
    9.2540   37.0430   10.2880 C   0  0  0  0  0  0  0  0  0  0  0  0
   10.0530   37.9290   11.0360 C   0  0  0  0  0  0  0  0  0  0  0  0
   10.1750   37.7850   12.4400 C   0  0  0  0  0  0  0  0  0  0  0  0
   14.1070   39.0180   12.4700 C   0  0  0  0  0  0  0  0  0  0  0  0
   14.4290   38.9280   13.8400 C   0  0  0  0  0  0  0  0  0  0  0  0
   15.7020   38.4810   14.2320 C   0  0  0  0  0  0  0  0  0  0  0  0
   16.6470   38.1250   13.2550 C   0  0  0  0  0  0  0  0  0  0  0  0
   17.8750   37.6900   13.6270 F   0  0  0  0  0  0  0  0  0  0  0  0
   16.3190   38.2210   11.8890 C   0  0  0  0  0  0  0  0  0  0  0  0
   15.0470   38.6740   11.4620 C   0  0  0  0  0  0  0  0  0  0  0  0
   14.7505   42.3179   12.6234 H   0  0  0  0  0  0  0  0  0  0  0  0
   14.6087   43.2647   11.1035 H   0  0  0  0  0  0  0  0  0  0  0  0
   14.2435   41.5059   11.1035 H   0  0  0  0  0  0  0  0  0  0  0  0
   16.9637   42.8746   11.4123 H   0  0  0  0  0  0  0  0  0  0  0  0
   16.6991   41.1487   11.8275 H   0  0  0  0  0  0  0  0  0  0  0  0
   15.6856   41.4609    7.2138 H   0  0  0  0  0  0  0  0  0  0  0  0
   16.8539   40.2255    6.6346 H   0  0  0  0  0  0  0  0  0  0  0  0
   15.0938   39.8669    6.6346 H   0  0  0  0  0  0  0  0  0  0  0  0
   14.3922   38.5983    8.0688 H   0  0  0  0  0  0  0  0  0  0  0  0
   15.7818   37.8162    8.9410 H   0  0  0  0  0  0  0  0  0  0  0  0
   12.0300   40.5377   13.3170 H   0  0  0  0  0  0  0  0  0  0  0  0
   11.0558   40.2413   11.7876 H   0  0  0  0  0  0  0  0  0  0  0  0
   11.6764   39.1439   15.2239 H   0  0  0  0  0  0  0  0  0  0  0  0
   10.4346   37.2788   16.3267 H   0  0  0  0  0  0  0  0  0  0  0  0
    9.0273   35.7247   14.9590 H   0  0  0  0  0  0  0  0  0  0  0  0
    8.1377   35.0231   12.8259 H   0  0  0  0  0  0  0  0  0  0  0  0
    7.9434   35.3059   10.3440 H   0  0  0  0  0  0  0  0  0  0  0  0
    9.1678   37.1686    9.1986 H   0  0  0  0  0  0  0  0  0  0  0  0
   10.5885   38.7422   10.5243 H   0  0  0  0  0  0  0  0  0  0  0  0
   13.6848   39.2073   14.6004 H   0  0  0  0  0  0  0  0  0  0  0  0
   15.9578   38.4100   15.2995 H   0  0  0  0  0  0  0  0  0  0  0  0
   17.0686   37.9374   11.1356 H   0  0  0  0  0  0  0  0  0  0  0  0
  1  2  1  0
  2  3  1  0
  3  4  1  0
  4  5  2  0
  4  6  1  0
  6  7  1  0
  6  8  1  0
  8  9  1  0
  9 10  2  0
 10 11  1  0
 11 12  2  0
 11 13  1  0
 10 14  1  0
 14 15  1  0
 15 16  1  0
 16 17  2  0
 17 18  1  0
 18 19  2  0
 19 20  1  0
 20 21  2  0
 21 22  1  0
 22 23  2  0
 23 24  1  0
 24 25  2  0
 14 26  1  0
 26 27  2  0
 27 28  1  0
 28 29  2  0
 29 30  1  0
 29 31  1  0
 31 32  2  0
 32  9  1  0
 25 16  1  0
 32 26  1  0
 25 20  1  0
  1 33  1  0
  1 34  1  0
  1 35  1  0
  2 36  1  0
  2 37  1  0
  7 38  1  0
  7 39  1  0
  7 40  1  0
  8 41  1  0
  8 42  1  0
 15 43  1  0
 15 44  1  0
 17 45  1  0
 18 46  1  0
 19 47  1  0
 21 48  1  0
 22 49  1  0
 23 50  1  0
 24 51  1  0
 27 52  1  0
 28 53  1  0
 31 54  1  0
M  CHG  1  13  -1
M  END
>  <meeko>  (6) 
{"free_energy": -4.03, "intermolecular_energy": -6.42, "internal_energy": -2.47, "cluster_size": 11, "cluster_id": 112, "rank_in_cluster": 11}

$$$$

     RDKit          3D

 54 57  0  0  0  0  0  0  0  0999 V2000
    7.3540   35.1370    7.5420 C   0  0  0  0  0  0  0  0  0  0  0  0
    7.6890   34.8860    9.0150 C   0  0  0  0  0  0  0  0  0  0  0  0
    7.7620   36.1290    9.6950 O   0  0  0  0  0  0  0  0  0  0  0  0
    8.9180   36.8260    9.7100 C   0  0  0  0  0  0  0  0  0  0  0  0
    9.3550   37.4340    8.7320 O   0  0  0  0  0  0  0  0  0  0  0  0
    9.5180   36.7540   10.9740 N   0  0  0  0  0  0  0  0  0  0  0  0
    8.7360   36.5610   12.2000 C   0  0  0  0  0  0  0  0  0  0  0  0
   10.9710   36.9000   11.1360 C   0  0  0  0  0  0  0  0  0  0  0  0
   11.3510   38.2480   11.7020 C   0  0  0  0  0  0  0  0  0  0  0  0
   11.5700   39.4390   11.0330 C   0  0  0  0  0  0  0  0  0  0  0  0
   11.4610   39.7460    9.5720 C   0  0  0  0  0  0  0  0  0  0  0  0
   11.7910   38.8670    8.7480 O   0  0  0  0  0  0  0  0  0  0  0  0
   11.0650   40.8670    9.1850 O   0  0  0  0  0  1  0  0  0  0  0  0
   11.9660   40.4200   11.9670 N   0  0  0  0  0  0  0  0  0  0  0  0
   12.2940   41.8280   11.7250 C   0  0  0  0  0  0  0  0  0  0  0  0
   11.4060   42.8340   12.4700 C   0  0  0  0  0  0  0  0  0  0  0  0
   11.9760   43.8210   13.3120 C   0  0  0  0  0  0  0  0  0  0  0  0
   11.1660   44.7440   13.9960 C   0  0  0  0  0  0  0  0  0  0  0  0
    9.7700   44.6960   13.8510 C   0  0  0  0  0  0  0  0  0  0  0  0
    9.1800   43.7240   13.0210 C   0  0  0  0  0  0  0  0  0  0  0  0
    7.7770   43.6910   12.8880 C   0  0  0  0  0  0  0  0  0  0  0  0
    7.1650   42.7280   12.0650 C   0  0  0  0  0  0  0  0  0  0  0  0
    7.9580   41.7960   11.3720 C   0  0  0  0  0  0  0  0  0  0  0  0
    9.3600   41.8240   11.5010 C   0  0  0  0  0  0  0  0  0  0  0  0
    9.9920   42.7870   12.3260 C   0  0  0  0  0  0  0  0  0  0  0  0
   12.0020   39.8560   13.2350 C   0  0  0  0  0  0  0  0  0  0  0  0
   12.3430   40.3930   14.4940 C   0  0  0  0  0  0  0  0  0  0  0  0
   12.2820   39.5850   15.6410 C   0  0  0  0  0  0  0  0  0  0  0  0
   11.8800   38.2430   15.5270 C   0  0  0  0  0  0  0  0  0  0  0  0
   11.8150   37.4590   16.6290 F   0  0  0  0  0  0  0  0  0  0  0  0
   11.5440   37.7120   14.2660 C   0  0  0  0  0  0  0  0  0  0  0  0
   11.6020   38.5000   13.0910 C   0  0  0  0  0  0  0  0  0  0  0  0
    6.4754   35.7953    7.4728 H   0  0  0  0  0  0  0  0  0  0  0  0
    8.2115   35.6168    7.0475 H   0  0  0  0  0  0  0  0  0  0  0  0
    7.1344   34.1792    7.0475 H   0  0  0  0  0  0  0  0  0  0  0  0
    6.9045   34.2633    9.4698 H   0  0  0  0  0  0  0  0  0  0  0  0
    8.6553   34.3658    9.0909 H   0  0  0  0  0  0  0  0  0  0  0  0
    9.3821   36.7204   13.0759 H   0  0  0  0  0  0  0  0  0  0  0  0
    7.9046   37.2809   12.2217 H   0  0  0  0  0  0  0  0  0  0  0  0
    8.3350   35.5369   12.2217 H   0  0  0  0  0  0  0  0  0  0  0  0
   11.3318   36.1155   11.8175 H   0  0  0  0  0  0  0  0  0  0  0  0
   11.4317   36.8102   10.1412 H   0  0  0  0  0  0  0  0  0  0  0  0
   13.3357   41.9949   12.0366 H   0  0  0  0  0  0  0  0  0  0  0  0
   12.1278   42.0042   10.6520 H   0  0  0  0  0  0  0  0  0  0  0  0
   13.0685   43.8655   13.4321 H   0  0  0  0  0  0  0  0  0  0  0  0
   11.6257   45.5040   14.6449 H   0  0  0  0  0  0  0  0  0  0  0  0
    9.1368   45.4187   14.3866 H   0  0  0  0  0  0  0  0  0  0  0  0
    7.1581   44.4213   13.4300 H   0  0  0  0  0  0  0  0  0  0  0  0
    6.0699   42.7041   11.9639 H   0  0  0  0  0  0  0  0  0  0  0  0
    7.4816   41.0428   10.7272 H   0  0  0  0  0  0  0  0  0  0  0  0
    9.9712   41.0901   10.9552 H   0  0  0  0  0  0  0  0  0  0  0  0
   12.6565   41.4441   14.5773 H   0  0  0  0  0  0  0  0  0  0  0  0
   12.5476   40.0005   16.6242 H   0  0  0  0  0  0  0  0  0  0  0  0
   11.2292   36.6606   14.1926 H   0  0  0  0  0  0  0  0  0  0  0  0
  1  2  1  0
  2  3  1  0
  3  4  1  0
  4  5  2  0
  4  6  1  0
  6  7  1  0
  6  8  1  0
  8  9  1  0
  9 10  2  0
 10 11  1  0
 11 12  2  0
 11 13  1  0
 10 14  1  0
 14 15  1  0
 15 16  1  0
 16 17  2  0
 17 18  1  0
 18 19  2  0
 19 20  1  0
 20 21  2  0
 21 22  1  0
 22 23  2  0
 23 24  1  0
 24 25  2  0
 14 26  1  0
 26 27  2  0
 27 28  1  0
 28 29  2  0
 29 30  1  0
 29 31  1  0
 31 32  2  0
 32  9  1  0
 25 16  1  0
 32 26  1  0
 25 20  1  0
  1 33  1  0
  1 34  1  0
  1 35  1  0
  2 36  1  0
  2 37  1  0
  7 38  1  0
  7 39  1  0
  7 40  1  0
  8 41  1  0
  8 42  1  0
 15 43  1  0
 15 44  1  0
 17 45  1  0
 18 46  1  0
 19 47  1  0
 21 48  1  0
 22 49  1  0
 23 50  1  0
 24 51  1  0
 27 52  1  0
 28 53  1  0
 31 54  1  0
M  CHG  1  13  -1
M  END
>  <meeko>  (7) 
{"free_energy": -4.52, "intermolecular_energy": -6.91, "internal_energy": -2.03, "cluster_size": 7, "cluster_id": 237, "rank_in_cluster": 2}

$$$$

     RDKit          3D

 54 57  0  0  0  0  0  0  0  0999 V2000
    8.9900   37.0830   18.1250 C   0  0  0  0  0  0  0  0  0  0  0  0
    8.3770   36.9490   16.7290 C   0  0  0  0  0  0  0  0  0  0  0  0
    7.9940   35.6000   16.5140 O   0  0  0  0  0  0  0  0  0  0  0  0
    8.5690   34.8830   15.5240 C   0  0  0  0  0  0  0  0  0  0  0  0
    8.1370   34.8540   14.3710 O   0  0  0  0  0  0  0  0  0  0  0  0
    9.6990   34.2060   16.0000 N   0  0  0  0  0  0  0  0  0  0  0  0
    9.6160   33.1970   17.0610 C   0  0  0  0  0  0  0  0  0  0  0  0
   11.0390   34.4990   15.4730 C   0  0  0  0  0  0  0  0  0  0  0  0
   11.3370   35.9800   15.4560 C   0  0  0  0  0  0  0  0  0  0  0  0
   10.9260   36.9360   14.5440 C   0  0  0  0  0  0  0  0  0  0  0  0
   10.0490   36.7910   13.3410 C   0  0  0  0  0  0  0  0  0  0  0  0
   10.3250   35.9090   12.4990 O   0  0  0  0  0  0  0  0  0  0  0  0
    9.0710   37.5510   13.1710 O   0  0  0  0  0  1  0  0  0  0  0  0
   11.5010   38.1760   14.8960 N   0  0  0  0  0  0  0  0  0  0  0  0
   11.3440   39.4730   14.2320 C   0  0  0  0  0  0  0  0  0  0  0  0
   11.6040   39.4590   12.7190 C   0  0  0  0  0  0  0  0  0  0  0  0
   12.8040   38.9180   12.1940 C   0  0  0  0  0  0  0  0  0  0  0  0
   13.0460   38.9030   10.8090 C   0  0  0  0  0  0  0  0  0  0  0  0
   12.0920   39.4300    9.9240 C   0  0  0  0  0  0  0  0  0  0  0  0
   10.8930   39.9740   10.4220 C   0  0  0  0  0  0  0  0  0  0  0  0
    9.9460   40.5000    9.5180 C   0  0  0  0  0  0  0  0  0  0  0  0
    8.7420   41.0490    9.9920 C   0  0  0  0  0  0  0  0  0  0  0  0
    8.4810   41.0720   11.3740 C   0  0  0  0  0  0  0  0  0  0  0  0
    9.4220   40.5500   12.2820 C   0  0  0  0  0  0  0  0  0  0  0  0
   10.6400   39.9930   11.8210 C   0  0  0  0  0  0  0  0  0  0  0  0
   12.2800   38.0130   16.0340 C   0  0  0  0  0  0  0  0  0  0  0  0
   13.0650   38.9210   16.7730 C   0  0  0  0  0  0  0  0  0  0  0  0
   13.7580   38.4820   17.9140 C   0  0  0  0  0  0  0  0  0  0  0  0
   13.6620   37.1370   18.3120 C   0  0  0  0  0  0  0  0  0  0  0  0
   14.3250   36.7080   19.4130 F   0  0  0  0  0  0  0  0  0  0  0  0
   12.8790   36.2350   17.5670 C   0  0  0  0  0  0  0  0  0  0  0  0
   12.1750   36.6470   16.4090 C   0  0  0  0  0  0  0  0  0  0  0  0
    8.2127   36.9131   18.8846 H   0  0  0  0  0  0  0  0  0  0  0  0
    9.7907   36.3387   18.2468 H   0  0  0  0  0  0  0  0  0  0  0  0
    9.4071   38.0935   18.2468 H   0  0  0  0  0  0  0  0  0  0  0  0
    7.4930   37.5990   16.6517 H   0  0  0  0  0  0  0  0  0  0  0  0
    9.1160   37.2481   15.9711 H   0  0  0  0  0  0  0  0  0  0  0  0
    9.6568   33.6925   18.0422 H   0  0  0  0  0  0  0  0  0  0  0  0
    8.6694   32.6445   16.9683 H   0  0  0  0  0  0  0  0  0  0  0  0
   10.4596   32.4972   16.9683 H   0  0  0  0  0  0  0  0  0  0  0  0
   11.7855   33.9952   16.1046 H   0  0  0  0  0  0  0  0  0  0  0  0
   11.0796   34.1356   14.4356 H   0  0  0  0  0  0  0  0  0  0  0  0
   10.3135   39.8199   14.3987 H   0  0  0  0  0  0  0  0  0  0  0  0
   12.1029   40.1381   14.6698 H   0  0  0  0  0  0  0  0  0  0  0  0
   13.5573   38.5037   12.8802 H   0  0  0  0  0  0  0  0  0  0  0  0
   13.9828   38.4784   10.4189 H   0  0  0  0  0  0  0  0  0  0  0  0
   12.2816   39.4178    8.8405 H   0  0  0  0  0  0  0  0  0  0  0  0
   10.1508   40.4804    8.4374 H   0  0  0  0  0  0  0  0  0  0  0  0
    8.0063   41.4593    9.2846 H   0  0  0  0  0  0  0  0  0  0  0  0
    7.5384   41.4993   11.7467 H   0  0  0  0  0  0  0  0  0  0  0  0
    9.2090   40.5750   13.3609 H   0  0  0  0  0  0  0  0  0  0  0  0
   13.1351   39.9723   16.4569 H   0  0  0  0  0  0  0  0  0  0  0  0
   14.3725   39.1872   18.4929 H   0  0  0  0  0  0  0  0  0  0  0  0
   12.8124   35.1861   17.8916 H   0  0  0  0  0  0  0  0  0  0  0  0
  1  2  1  0
  2  3  1  0
  3  4  1  0
  4  5  2  0
  4  6  1  0
  6  7  1  0
  6  8  1  0
  8  9  1  0
  9 10  2  0
 10 11  1  0
 11 12  2  0
 11 13  1  0
 10 14  1  0
 14 15  1  0
 15 16  1  0
 16 17  2  0
 17 18  1  0
 18 19  2  0
 19 20  1  0
 20 21  2  0
 21 22  1  0
 22 23  2  0
 23 24  1  0
 24 25  2  0
 14 26  1  0
 26 27  2  0
 27 28  1  0
 28 29  2  0
 29 30  1  0
 29 31  1  0
 31 32  2  0
 32  9  1  0
 25 16  1  0
 32 26  1  0
 25 20  1  0
  1 33  1  0
  1 34  1  0
  1 35  1  0
  2 36  1  0
  2 37  1  0
  7 38  1  0
  7 39  1  0
  7 40  1  0
  8 41  1  0
  8 42  1  0
 15 43  1  0
 15 44  1  0
 17 45  1  0
 18 46  1  0
 19 47  1  0
 21 48  1  0
 22 49  1  0
 23 50  1  0
 24 51  1  0
 27 52  1  0
 28 53  1  0
 31 54  1  0
M  CHG  1  13  -1
M  END
>  <meeko>  (8) 
{"free_energy": -4.69, "intermolecular_energy": -7.08, "internal_energy": -2.3, "cluster_size": 52, "cluster_id": 33, "rank_in_cluster": 37}

$$$$

     RDKit          3D

 54 57  0  0  0  0  0  0  0  0999 V2000
   11.5490   37.4940   20.1260 C   0  0  0  0  0  0  0  0  0  0  0  0
   11.2740   38.9990   20.1810 C   0  0  0  0  0  0  0  0  0  0  0  0
   12.1070   39.6600   19.2420 O   0  0  0  0  0  0  0  0  0  0  0  0
   11.5690   40.2240   18.1400 C   0  0  0  0  0  0  0  0  0  0  0  0
   11.3730   41.4350   18.0250 O   0  0  0  0  0  0  0  0  0  0  0  0
   11.2850   39.2470   17.1770 N   0  0  0  0  0  0  0  0  0  0  0  0
   12.3380   38.4510   16.5380 C   0  0  0  0  0  0  0  0  0  0  0  0
    9.9070   38.9910   16.7350 C   0  0  0  0  0  0  0  0  0  0  0  0
    9.8350   37.9070   15.6850 C   0  0  0  0  0  0  0  0  0  0  0  0
   10.2060   37.9650   14.3530 C   0  0  0  0  0  0  0  0  0  0  0  0
   10.8130   39.0930   13.5800 C   0  0  0  0  0  0  0  0  0  0  0  0
   12.0570   39.1560   13.4860 O   0  0  0  0  0  0  0  0  0  0  0  0
   10.0880   39.9670   13.0550 O   0  0  0  0  0  1  0  0  0  0  0  0
    9.8990   36.7300   13.7420 N   0  0  0  0  0  0  0  0  0  0  0  0
   10.1200   36.3230   12.3520 C   0  0  0  0  0  0  0  0  0  0  0  0
    9.9300   37.4380   11.3150 C   0  0  0  0  0  0  0  0  0  0  0  0
    8.6340   37.8980   10.9720 C   0  0  0  0  0  0  0  0  0  0  0  0
    8.4560   38.9190   10.0230 C   0  0  0  0  0  0  0  0  0  0  0  0
    9.5710   39.4980    9.3970 C   0  0  0  0  0  0  0  0  0  0  0  0
   10.8690   39.0570    9.7180 C   0  0  0  0  0  0  0  0  0  0  0  0
   11.9770   39.6490    9.0790 C   0  0  0  0  0  0  0  0  0  0  0  0
   13.2830   39.2240    9.3840 C   0  0  0  0  0  0  0  0  0  0  0  0
   13.4820   38.2040   10.3320 C   0  0  0  0  0  0  0  0  0  0  0  0
   12.3790   37.6080   10.9740 C   0  0  0  0  0  0  0  0  0  0  0  0
   11.0580   38.0250   10.6780 C   0  0  0  0  0  0  0  0  0  0  0  0
    9.3300   35.8830   14.6840 C   0  0  0  0  0  0  0  0  0  0  0  0
    8.8400   34.5640   14.5870 C   0  0  0  0  0  0  0  0  0  0  0  0
    8.3140   33.9260   15.7230 C   0  0  0  0  0  0  0  0  0  0  0  0
    8.2820   34.6080   16.9520 C   0  0  0  0  0  0  0  0  0  0  0  0
    7.7800   33.9970   18.0510 F   0  0  0  0  0  0  0  0  0  0  0  0
    8.7690   35.9260   17.0400 C   0  0  0  0  0  0  0  0  0  0  0  0
    9.2990   36.5970   15.9110 C   0  0  0  0  0  0  0  0  0  0  0  0
   11.6216   37.0969   21.1492 H   0  0  0  0  0  0  0  0  0  0  0  0
   10.7280   36.9904   19.5946 H   0  0  0  0  0  0  0  0  0  0  0  0
   12.4950   37.3133   19.5946 H   0  0  0  0  0  0  0  0  0  0  0  0
   10.2189   39.1895   19.9349 H   0  0  0  0  0  0  0  0  0  0  0  0
   11.4851   39.3765   21.1924 H   0  0  0  0  0  0  0  0  0  0  0  0
   12.9617   37.9795   17.3117 H   0  0  0  0  0  0  0  0  0  0  0  0
   11.8794   37.6718   15.9115 H   0  0  0  0  0  0  0  0  0  0  0  0
   12.9626   39.1047   15.9115 H   0  0  0  0  0  0  0  0  0  0  0  0
    9.3080   38.6821   17.6044 H   0  0  0  0  0  0  0  0  0  0  0  0
    9.5182   39.9184   16.2892 H   0  0  0  0  0  0  0  0  0  0  0  0
   11.1503   35.9476   12.2654 H   0  0  0  0  0  0  0  0  0  0  0  0
    9.3590   35.5607   12.1287 H   0  0  0  0  0  0  0  0  0  0  0  0
    7.7542   37.4490   11.4560 H   0  0  0  0  0  0  0  0  0  0  0  0
    7.4426   39.2646    9.7706 H   0  0  0  0  0  0  0  0  0  0  0  0
    9.4305   40.2974    8.6546 H   0  0  0  0  0  0  0  0  0  0  0  0
   11.8199   40.4470    8.3384 H   0  0  0  0  0  0  0  0  0  0  0  0
   14.1455   39.6877    8.8829 H   0  0  0  0  0  0  0  0  0  0  0  0
   14.5023   37.8707   10.5727 H   0  0  0  0  0  0  0  0  0  0  0  0
   12.5452   36.8103   11.7130 H   0  0  0  0  0  0  0  0  0  0  0  0
    8.8696   34.0353   13.6229 H   0  0  0  0  0  0  0  0  0  0  0  0
    7.9292   32.8980   15.6511 H   0  0  0  0  0  0  0  0  0  0  0  0
    8.7371   36.4468   18.0084 H   0  0  0  0  0  0  0  0  0  0  0  0
  1  2  1  0
  2  3  1  0
  3  4  1  0
  4  5  2  0
  4  6  1  0
  6  7  1  0
  6  8  1  0
  8  9  1  0
  9 10  2  0
 10 11  1  0
 11 12  2  0
 11 13  1  0
 10 14  1  0
 14 15  1  0
 15 16  1  0
 16 17  2  0
 17 18  1  0
 18 19  2  0
 19 20  1  0
 20 21  2  0
 21 22  1  0
 22 23  2  0
 23 24  1  0
 24 25  2  0
 14 26  1  0
 26 27  2  0
 27 28  1  0
 28 29  2  0
 29 30  1  0
 29 31  1  0
 31 32  2  0
 32  9  1  0
 25 16  1  0
 32 26  1  0
 25 20  1  0
  1 33  1  0
  1 34  1  0
  1 35  1  0
  2 36  1  0
  2 37  1  0
  7 38  1  0
  7 39  1  0
  7 40  1  0
  8 41  1  0
  8 42  1  0
 15 43  1  0
 15 44  1  0
 17 45  1  0
 18 46  1  0
 19 47  1  0
 21 48  1  0
 22 49  1  0
 23 50  1  0
 24 51  1  0
 27 52  1  0
 28 53  1  0
 31 54  1  0
M  CHG  1  13  -1
M  END
>  <meeko>  (9) 
{"free_energy": -4.74, "intermolecular_energy": -7.13, "internal_energy": -1.71, "cluster_size": 14, "cluster_id": 123, "rank_in_cluster": 8}

$$$$

     RDKit          3D

 54 57  0  0  0  0  0  0  0  0999 V2000
   12.7770   35.6550   16.6580 C   0  0  0  0  0  0  0  0  0  0  0  0
   11.3380   36.0250   17.0260 C   0  0  0  0  0  0  0  0  0  0  0  0
   10.4550   35.0520   16.4930 O   0  0  0  0  0  0  0  0  0  0  0  0
    9.7980   35.2960   15.3380 C   0  0  0  0  0  0  0  0  0  0  0  0
    9.9190   34.5990   14.3290 O   0  0  0  0  0  0  0  0  0  0  0  0
    8.9780   36.4250   15.4680 N   0  0  0  0  0  0  0  0  0  0  0  0
    7.6600   36.3620   16.1080 C   0  0  0  0  0  0  0  0  0  0  0  0
    9.3920   37.7310   14.9380 C   0  0  0  0  0  0  0  0  0  0  0  0
   10.2650   37.6010   13.7130 C   0  0  0  0  0  0  0  0  0  0  0  0
   11.5530   38.0660   13.5130 C   0  0  0  0  0  0  0  0  0  0  0  0
   12.4610   38.7940   14.4530 C   0  0  0  0  0  0  0  0  0  0  0  0
   13.6370   38.3920   14.5840 O   0  0  0  0  0  0  0  0  0  0  0  0
   12.0450   39.7730   15.1100 O   0  0  0  0  0  1  0  0  0  0  0  0
   11.9430   37.7680   12.1900 N   0  0  0  0  0  0  0  0  0  0  0  0
   13.2200   38.0570   11.5300 C   0  0  0  0  0  0  0  0  0  0  0  0
   13.1540   39.1370   10.4420 C   0  0  0  0  0  0  0  0  0  0  0  0
   14.0910   39.1540    9.3790 C   0  0  0  0  0  0  0  0  0  0  0  0
   14.0350   40.1410    8.3800 C   0  0  0  0  0  0  0  0  0  0  0  0
   13.0410   41.1310    8.4270 C   0  0  0  0  0  0  0  0  0  0  0  0
   12.1000   41.1370    9.4740 C   0  0  0  0  0  0  0  0  0  0  0  0
   11.1080   42.1400    9.5050 C   0  0  0  0  0  0  0  0  0  0  0  0
   10.1580   42.1650   10.5420 C   0  0  0  0  0  0  0  0  0  0  0  0
   10.1970   41.1850   11.5500 C   0  0  0  0  0  0  0  0  0  0  0  0
   11.1850   40.1820   11.5250 C   0  0  0  0  0  0  0  0  0  0  0  0
   12.1500   40.1410   10.4880 C   0  0  0  0  0  0  0  0  0  0  0  0
   10.9040   37.1130   11.5420 C   0  0  0  0  0  0  0  0  0  0  0  0
   10.7780   36.6200   10.2270 C   0  0  0  0  0  0  0  0  0  0  0  0
    9.5940   35.9770    9.8300 C   0  0  0  0  0  0  0  0  0  0  0  0
    8.5410   35.8270   10.7490 C   0  0  0  0  0  0  0  0  0  0  0  0
    7.3980   35.2050   10.3730 F   0  0  0  0  0  0  0  0  0  0  0  0
    8.6720   36.3250   12.0590 C   0  0  0  0  0  0  0  0  0  0  0  0
    9.8510   36.9840   12.4870 C   0  0  0  0  0  0  0  0  0  0  0  0
   13.3632   35.5043   17.5765 H   0  0  0  0  0  0  0  0  0  0  0  0
   12.7773   34.7276   16.0665 H   0  0  0  0  0  0  0  0  0  0  0  0
   13.2246   36.4673   16.0665 H   0  0  0  0  0  0  0  0  0  0  0  0
   11.2345   36.0553   18.1207 H   0  0  0  0  0  0  0  0  0  0  0  0
   11.0929   37.0134   16.6101 H   0  0  0  0  0  0  0  0  0  0  0  0
    7.7825   36.3679   17.2011 H   0  0  0  0  0  0  0  0  0  0  0  0
    7.0615   37.2326   15.8015 H   0  0  0  0  0  0  0  0  0  0  0  0
    7.1473   35.4383   15.8015 H   0  0  0  0  0  0  0  0  0  0  0  0
    8.4928   38.3062   14.6723 H   0  0  0  0  0  0  0  0  0  0  0  0
    9.9785   38.2400   15.7170 H   0  0  0  0  0  0  0  0  0  0  0  0
   13.9344   38.3885   12.2979 H   0  0  0  0  0  0  0  0  0  0  0  0
   13.5240   37.1281   11.0252 H   0  0  0  0  0  0  0  0  0  0  0  0
   14.8742   38.3828    9.3351 H   0  0  0  0  0  0  0  0  0  0  0  0
   14.7699   40.1377    7.5615 H   0  0  0  0  0  0  0  0  0  0  0  0
   12.9973   41.9031    7.6447 H   0  0  0  0  0  0  0  0  0  0  0  0
   11.0775   42.9052    8.7153 H   0  0  0  0  0  0  0  0  0  0  0  0
    9.3867   42.9489   10.5645 H   0  0  0  0  0  0  0  0  0  0  0  0
    9.4534   41.2021   12.3604 H   0  0  0  0  0  0  0  0  0  0  0  0
   11.2080   39.4216   12.3195 H   0  0  0  0  0  0  0  0  0  0  0  0
   11.6061   36.7388    9.5128 H   0  0  0  0  0  0  0  0  0  0  0  0
    9.4912   35.5925    8.8045 H   0  0  0  0  0  0  0  0  0  0  0  0
    7.8396   36.1996   12.7670 H   0  0  0  0  0  0  0  0  0  0  0  0
  1  2  1  0
  2  3  1  0
  3  4  1  0
  4  5  2  0
  4  6  1  0
  6  7  1  0
  6  8  1  0
  8  9  1  0
  9 10  2  0
 10 11  1  0
 11 12  2  0
 11 13  1  0
 10 14  1  0
 14 15  1  0
 15 16  1  0
 16 17  2  0
 17 18  1  0
 18 19  2  0
 19 20  1  0
 20 21  2  0
 21 22  1  0
 22 23  2  0
 23 24  1  0
 24 25  2  0
 14 26  1  0
 26 27  2  0
 27 28  1  0
 28 29  2  0
 29 30  1  0
 29 31  1  0
 31 32  2  0
 32  9  1  0
 25 16  1  0
 32 26  1  0
 25 20  1  0
  1 33  1  0
  1 34  1  0
  1 35  1  0
  2 36  1  0
  2 37  1  0
  7 38  1  0
  7 39  1  0
  7 40  1  0
  8 41  1  0
  8 42  1  0
 15 43  1  0
 15 44  1  0
 17 45  1  0
 18 46  1  0
 19 47  1  0
 21 48  1  0
 22 49  1  0
 23 50  1  0
 24 51  1  0
 27 52  1  0
 28 53  1  0
 31 54  1  0
M  CHG  1  13  -1
M  END
>  <meeko>  (10) 
{"free_energy": -4.76, "intermolecular_energy": -7.14, "internal_energy": -1.96, "cluster_size": 251, "cluster_id": 26, "rank_in_cluster": 236}

$$$$

     RDKit          3D

 54 57  0  0  0  0  0  0  0  0999 V2000
   13.2180   39.5660    8.3690 C   0  0  0  0  0  0  0  0  0  0  0  0
   12.8890   40.1730    9.7350 C   0  0  0  0  0  0  0  0  0  0  0  0
   11.5750   39.7920   10.1110 O   0  0  0  0  0  0  0  0  0  0  0  0
   11.2590   38.4850   10.2350 C   0  0  0  0  0  0  0  0  0  0  0  0
   12.0970   37.5990   10.4130 O   0  0  0  0  0  0  0  0  0  0  0  0
    9.8730   38.3030   10.1390 N   0  0  0  0  0  0  0  0  0  0  0  0
    9.0810   38.9020    9.0590 C   0  0  0  0  0  0  0  0  0  0  0  0
    9.1360   37.5210   11.1400 C   0  0  0  0  0  0  0  0  0  0  0  0
    9.5870   37.8270   12.5500 C   0  0  0  0  0  0  0  0  0  0  0  0
    9.7600   36.9570   13.6120 C   0  0  0  0  0  0  0  0  0  0  0  0
    9.5880   35.4720   13.6670 C   0  0  0  0  0  0  0  0  0  0  0  0
    8.4300   35.0010   13.6510 O   0  0  0  0  0  0  0  0  0  0  0  0
   10.5820   34.7190   13.7460 O   0  0  0  0  0  1  0  0  0  0  0  0
   10.1300   37.7020   14.7530 N   0  0  0  0  0  0  0  0  0  0  0  0
   10.4280   37.2130   16.1020 C   0  0  0  0  0  0  0  0  0  0  0  0
    9.3810   37.5730   17.1640 C   0  0  0  0  0  0  0  0  0  0  0  0
    9.4810   38.7780   17.9030 C   0  0  0  0  0  0  0  0  0  0  0  0
    8.5250   39.1120   18.8770 C   0  0  0  0  0  0  0  0  0  0  0  0
    7.4500   38.2450   19.1320 C   0  0  0  0  0  0  0  0  0  0  0  0
    7.3300   37.0410   18.4140 C   0  0  0  0  0  0  0  0  0  0  0  0
    6.2450   36.1810   18.6840 C   0  0  0  0  0  0  0  0  0  0  0  0
    6.1050   34.9730   17.9790 C   0  0  0  0  0  0  0  0  0  0  0  0
    7.0510   34.6210   16.9990 C   0  0  0  0  0  0  0  0  0  0  0  0
    8.1370   35.4750   16.7250 C   0  0  0  0  0  0  0  0  0  0  0  0
    8.2930   36.6960   17.4260 C   0  0  0  0  0  0  0  0  0  0  0  0
   10.1930   39.0490   14.4200 C   0  0  0  0  0  0  0  0  0  0  0  0
   10.4980   40.1930   15.1850 C   0  0  0  0  0  0  0  0  0  0  0  0
   10.4980   41.4610   14.5810 C   0  0  0  0  0  0  0  0  0  0  0  0
   10.1940   41.5810   13.2140 C   0  0  0  0  0  0  0  0  0  0  0  0
   10.1960   42.8000   12.6250 F   0  0  0  0  0  0  0  0  0  0  0  0
    9.8870   40.4340   12.4560 C   0  0  0  0  0  0  0  0  0  0  0  0
    9.8730   39.1440   13.0390 C   0  0  0  0  0  0  0  0  0  0  0  0
   13.7379   38.6069    8.5096 H   0  0  0  0  0  0  0  0  0  0  0  0
   12.2867   39.3995    7.8078 H   0  0  0  0  0  0  0  0  0  0  0  0
   13.8659   40.2554    7.8078 H   0  0  0  0  0  0  0  0  0  0  0  0
   13.6068   39.8057   10.4832 H   0  0  0  0  0  0  0  0  0  0  0  0
   12.9533   41.2696    9.6771 H   0  0  0  0  0  0  0  0  0  0  0  0
    8.2742   39.5122    9.4910 H   0  0  0  0  0  0  0  0  0  0  0  0
    9.7293   39.5378    8.4381 H   0  0  0  0  0  0  0  0  0  0  0  0
    8.6457   38.1051    8.4381 H   0  0  0  0  0  0  0  0  0  0  0  0
    8.0645   37.7539   11.0526 H   0  0  0  0  0  0  0  0  0  0  0  0
    9.3316   36.4559   10.9469 H   0  0  0  0  0  0  0  0  0  0  0  0
   10.5080   36.1168   16.0585 H   0  0  0  0  0  0  0  0  0  0  0  0
   11.3624   37.7051   16.4098 H   0  0  0  0  0  0  0  0  0  0  0  0
   10.3203   39.4627   17.7111 H   0  0  0  0  0  0  0  0  0  0  0  0
    8.6185   40.0525   19.4398 H   0  0  0  0  0  0  0  0  0  0  0  0
    6.7011   38.5075   19.8938 H   0  0  0  0  0  0  0  0  0  0  0  0
    5.5051   36.4569   19.4497 H   0  0  0  0  0  0  0  0  0  0  0  0
    5.2580   34.3046   18.1930 H   0  0  0  0  0  0  0  0  0  0  0  0
    6.9423   33.6767   16.4455 H   0  0  0  0  0  0  0  0  0  0  0  0
    8.8724   35.1906   15.9580 H   0  0  0  0  0  0  0  0  0  0  0  0
   10.7358   40.0927   16.2543 H   0  0  0  0  0  0  0  0  0  0  0  0
   10.7348   42.3560   15.1750 H   0  0  0  0  0  0  0  0  0  0  0  0
    9.6528   40.5432   11.3868 H   0  0  0  0  0  0  0  0  0  0  0  0
  1  2  1  0
  2  3  1  0
  3  4  1  0
  4  5  2  0
  4  6  1  0
  6  7  1  0
  6  8  1  0
  8  9  1  0
  9 10  2  0
 10 11  1  0
 11 12  2  0
 11 13  1  0
 10 14  1  0
 14 15  1  0
 15 16  1  0
 16 17  2  0
 17 18  1  0
 18 19  2  0
 19 20  1  0
 20 21  2  0
 21 22  1  0
 22 23  2  0
 23 24  1  0
 24 25  2  0
 14 26  1  0
 26 27  2  0
 27 28  1  0
 28 29  2  0
 29 30  1  0
 29 31  1  0
 31 32  2  0
 32  9  1  0
 25 16  1  0
 32 26  1  0
 25 20  1  0
  1 33  1  0
  1 34  1  0
  1 35  1  0
  2 36  1  0
  2 37  1  0
  7 38  1  0
  7 39  1  0
  7 40  1  0
  8 41  1  0
  8 42  1  0
 15 43  1  0
 15 44  1  0
 17 45  1  0
 18 46  1  0
 19 47  1  0
 21 48  1  0
 22 49  1  0
 23 50  1  0
 24 51  1  0
 27 52  1  0
 28 53  1  0
 31 54  1  0
M  CHG  1  13  -1
M  END
>  <meeko>  (11) 
{"free_energy": -5.3, "intermolecular_energy": -7.69, "internal_energy": -2.01, "cluster_size": 136, "cluster_id": 23, "rank_in_cluster": 99}

$$$$

     RDKit          3D

 54 57  0  0  0  0  0  0  0  0999 V2000
   13.6530   42.2080   14.9870 C   0  0  0  0  0  0  0  0  0  0  0  0
   13.6510   43.3690   13.9890 C   0  0  0  0  0  0  0  0  0  0  0  0
   13.6920   42.8510   12.6690 O   0  0  0  0  0  0  0  0  0  0  0  0
   13.1010   43.5250   11.6590 C   0  0  0  0  0  0  0  0  0  0  0  0
   13.5780   44.5420   11.1530 O   0  0  0  0  0  0  0  0  0  0  0  0
   11.9030   42.9010   11.2860 N   0  0  0  0  0  0  0  0  0  0  0  0
   10.7100   42.9310   12.1390 C   0  0  0  0  0  0  0  0  0  0  0  0
   11.7930   42.1560   10.0250 C   0  0  0  0  0  0  0  0  0  0  0  0
   11.3550   40.7270   10.2420 C   0  0  0  0  0  0  0  0  0  0  0  0
   10.1030   40.2460   10.5840 C   0  0  0  0  0  0  0  0  0  0  0  0
    8.8230   40.9900   10.8020 C   0  0  0  0  0  0  0  0  0  0  0  0
    8.4400   41.1960   11.9740 O   0  0  0  0  0  0  0  0  0  0  0  0
    8.1400   41.3800    9.8300 O   0  0  0  0  0  1  0  0  0  0  0  0
   10.1810   38.8460   10.7410 N   0  0  0  0  0  0  0  0  0  0  0  0
    9.1100   37.9080   11.0880 C   0  0  0  0  0  0  0  0  0  0  0  0
    8.7380   36.9140    9.9800 C   0  0  0  0  0  0  0  0  0  0  0  0
    8.9820   35.5260   10.1370 C   0  0  0  0  0  0  0  0  0  0  0  0
    8.6430   34.6130    9.1240 C   0  0  0  0  0  0  0  0  0  0  0  0
    8.0560   35.0700    7.9330 C   0  0  0  0  0  0  0  0  0  0  0  0
    7.8050   36.4430    7.7530 C   0  0  0  0  0  0  0  0  0  0  0  0
    7.2150   36.8840    6.5500 C   0  0  0  0  0  0  0  0  0  0  0  0
    6.9550   38.2520    6.3480 C   0  0  0  0  0  0  0  0  0  0  0  0
    7.2860   39.1820    7.3500 C   0  0  0  0  0  0  0  0  0  0  0  0
    7.8760   38.7480    8.5520 C   0  0  0  0  0  0  0  0  0  0  0  0
    8.1440   37.3740    8.7730 C   0  0  0  0  0  0  0  0  0  0  0  0
   11.4840   38.4300   10.5000 C   0  0  0  0  0  0  0  0  0  0  0  0
   12.0850   37.1550   10.5370 C   0  0  0  0  0  0  0  0  0  0  0  0
   13.4500   37.0150   10.2350 C   0  0  0  0  0  0  0  0  0  0  0  0
   14.2080   38.1490    9.8940 C   0  0  0  0  0  0  0  0  0  0  0  0
   15.5230   38.0210    9.5970 F   0  0  0  0  0  0  0  0  0  0  0  0
   13.6010   39.4200    9.8620 C   0  0  0  0  0  0  0  0  0  0  0  0
   12.2290   39.5930   10.1690 C   0  0  0  0  0  0  0  0  0  0  0  0
   13.6523   42.6060   16.0125 H   0  0  0  0  0  0  0  0  0  0  0  0
   12.7559   41.5904   14.8328 H   0  0  0  0  0  0  0  0  0  0  0  0
   14.5522   41.5935   14.8328 H   0  0  0  0  0  0  0  0  0  0  0  0
   12.7367   43.9661   14.1214 H   0  0  0  0  0  0  0  0  0  0  0  0
   14.5304   44.0065   14.1627 H   0  0  0  0  0  0  0  0  0  0  0  0
   11.0147   42.9233   13.1959 H   0  0  0  0  0  0  0  0  0  0  0  0
   10.1329   43.8439   11.9304 H   0  0  0  0  0  0  0  0  0  0  0  0
   10.0878   42.0482   11.9304 H   0  0  0  0  0  0  0  0  0  0  0  0
   11.0566   42.6580    9.3802 H   0  0  0  0  0  0  0  0  0  0  0  0
   12.7882   42.1364    9.5569 H   0  0  0  0  0  0  0  0  0  0  0  0
    9.4314   37.3331   11.9691 H   0  0  0  0  0  0  0  0  0  0  0  0
    8.2126   38.5177   11.2696 H   0  0  0  0  0  0  0  0  0  0  0  0
    9.4435   35.1585   11.0655 H   0  0  0  0  0  0  0  0  0  0  0  0
    8.8376   33.5395    9.2641 H   0  0  0  0  0  0  0  0  0  0  0  0
    7.7922   34.3544    7.1403 H   0  0  0  0  0  0  0  0  0  0  0  0
    6.9572   36.1558    5.7669 H   0  0  0  0  0  0  0  0  0  0  0  0
    6.4942   38.5932    5.4092 H   0  0  0  0  0  0  0  0  0  0  0  0
    7.0831   40.2518    7.1938 H   0  0  0  0  0  0  0  0  0  0  0  0
    8.1320   39.4837    9.3287 H   0  0  0  0  0  0  0  0  0  0  0  0
   11.4860   36.2712   10.8019 H   0  0  0  0  0  0  0  0  0  0  0  0
   13.9235   36.0226   10.2652 H   0  0  0  0  0  0  0  0  0  0  0  0
   14.2063   40.2980    9.5925 H   0  0  0  0  0  0  0  0  0  0  0  0
  1  2  1  0
  2  3  1  0
  3  4  1  0
  4  5  2  0
  4  6  1  0
  6  7  1  0
  6  8  1  0
  8  9  1  0
  9 10  2  0
 10 11  1  0
 11 12  2  0
 11 13  1  0
 10 14  1  0
 14 15  1  0
 15 16  1  0
 16 17  2  0
 17 18  1  0
 18 19  2  0
 19 20  1  0
 20 21  2  0
 21 22  1  0
 22 23  2  0
 23 24  1  0
 24 25  2  0
 14 26  1  0
 26 27  2  0
 27 28  1  0
 28 29  2  0
 29 30  1  0
 29 31  1  0
 31 32  2  0
 32  9  1  0
 25 16  1  0
 32 26  1  0
 25 20  1  0
  1 33  1  0
  1 34  1  0
  1 35  1  0
  2 36  1  0
  2 37  1  0
  7 38  1  0
  7 39  1  0
  7 40  1  0
  8 41  1  0
  8 42  1  0
 15 43  1  0
 15 44  1  0
 17 45  1  0
 18 46  1  0
 19 47  1  0
 21 48  1  0
 22 49  1  0
 23 50  1  0
 24 51  1  0
 27 52  1  0
 28 53  1  0
 31 54  1  0
M  CHG  1  13  -1
M  END
>  <meeko>  (12) 
{"free_energy": -6.89, "intermolecular_energy": -9.28, "internal_energy": -1.81, "cluster_size": 96, "cluster_id": 3, "rank_in_cluster": 16}

$$$$

     RDKit          3D

 54 57  0  0  0  0  0  0  0  0999 V2000
   14.0180   42.5320    7.4730 C   0  0  0  0  0  0  0  0  0  0  0  0
   13.4600   41.1080    7.4050 C   0  0  0  0  0  0  0  0  0  0  0  0
   13.3230   40.5970    8.7210 O   0  0  0  0  0  0  0  0  0  0  0  0
   13.7710   39.3580    9.0160 C   0  0  0  0  0  0  0  0  0  0  0  0
   14.9040   38.9630    8.7380 O   0  0  0  0  0  0  0  0  0  0  0  0
   12.7770   38.6200    9.6710 N   0  0  0  0  0  0  0  0  0  0  0  0
   13.0980   37.5850   10.6600 C   0  0  0  0  0  0  0  0  0  0  0  0
   11.3530   38.8290    9.3760 C   0  0  0  0  0  0  0  0  0  0  0  0
   10.4540   38.1550   10.3860 C   0  0  0  0  0  0  0  0  0  0  0  0
   10.3520   38.3880   11.7470 C   0  0  0  0  0  0  0  0  0  0  0  0
   11.0680   39.3870   12.6000 C   0  0  0  0  0  0  0  0  0  0  0  0
   12.0030   38.9940   13.3290 O   0  0  0  0  0  0  0  0  0  0  0  0
   10.7240   40.5900   12.5960 O   0  0  0  0  0  1  0  0  0  0  0  0
    9.4260   37.4760   12.2960 N   0  0  0  0  0  0  0  0  0  0  0  0
    8.9880   37.3510   13.6890 C   0  0  0  0  0  0  0  0  0  0  0  0
    9.3860   36.0370   14.3750 C   0  0  0  0  0  0  0  0  0  0  0  0
   10.2320   35.1050   13.7230 C   0  0  0  0  0  0  0  0  0  0  0  0
   10.6000   33.9010   14.3470 C   0  0  0  0  0  0  0  0  0  0  0  0
   10.1270   33.6050   15.6360 C   0  0  0  0  0  0  0  0  0  0  0  0
    9.2840   34.5140   16.3030 C   0  0  0  0  0  0  0  0  0  0  0  0
    8.8180   34.2000   17.5970 C   0  0  0  0  0  0  0  0  0  0  0  0
    7.9740   35.0930   18.2820 C   0  0  0  0  0  0  0  0  0  0  0  0
    7.5960   36.3030   17.6750 C   0  0  0  0  0  0  0  0  0  0  0  0
    8.0570   36.6220   16.3830 C   0  0  0  0  0  0  0  0  0  0  0  0
    8.9080   35.7350   15.6790 C   0  0  0  0  0  0  0  0  0  0  0  0
    8.9350   36.6580   11.2860 C   0  0  0  0  0  0  0  0  0  0  0  0
    8.0120   35.5920   11.3050 C   0  0  0  0  0  0  0  0  0  0  0  0
    7.6820   34.9300   10.1110 C   0  0  0  0  0  0  0  0  0  0  0  0
    8.2740   35.3360    8.9020 C   0  0  0  0  0  0  0  0  0  0  0  0
    7.9570   34.7040    7.7470 F   0  0  0  0  0  0  0  0  0  0  0  0
    9.1980   36.3990    8.8920 C   0  0  0  0  0  0  0  0  0  0  0  0
    9.5560   37.0810   10.0800 C   0  0  0  0  0  0  0  0  0  0  0  0
   14.1348   42.8302    8.5254 H   0  0  0  0  0  0  0  0  0  0  0  0
   14.9963   42.5668    6.9713 H   0  0  0  0  0  0  0  0  0  0  0  0
   13.3238   43.2222    6.9713 H   0  0  0  0  0  0  0  0  0  0  0  0
   12.4771   41.1213    6.9114 H   0  0  0  0  0  0  0  0  0  0  0  0
   14.1468   40.4692    6.8303 H   0  0  0  0  0  0  0  0  0  0  0  0
   12.9711   37.9941   11.6732 H   0  0  0  0  0  0  0  0  0  0  0  0
   12.4239   36.7264   10.5242 H   0  0  0  0  0  0  0  0  0  0  0  0
   14.1396   37.2585   10.5242 H   0  0  0  0  0  0  0  0  0  0  0  0
   11.1451   39.9092    9.3824 H   0  0  0  0  0  0  0  0  0  0  0  0
   11.1445   38.3860    8.3910 H   0  0  0  0  0  0  0  0  0  0  0  0
    9.4265   38.1819   14.2612 H   0  0  0  0  0  0  0  0  0  0  0  0
    7.8883   37.3688   13.6699 H   0  0  0  0  0  0  0  0  0  0  0  0
   10.6062   35.3278   12.7129 H   0  0  0  0  0  0  0  0  0  0  0  0
   11.2585   33.1903   13.8261 H   0  0  0  0  0  0  0  0  0  0  0  0
   10.4154   32.6625   16.1245 H   0  0  0  0  0  0  0  0  0  0  0  0
    9.1156   33.2536   18.0720 H   0  0  0  0  0  0  0  0  0  0  0  0
    7.6108   34.8449   19.2902 H   0  0  0  0  0  0  0  0  0  0  0  0
    6.9380   37.0031   18.2107 H   0  0  0  0  0  0  0  0  0  0  0  0
    7.7529   37.5702   15.9155 H   0  0  0  0  0  0  0  0  0  0  0  0
    7.5511   35.2794   12.2536 H   0  0  0  0  0  0  0  0  0  0  0  0
    6.9633   34.0973   10.1217 H   0  0  0  0  0  0  0  0  0  0  0  0
    9.6523   36.7066    7.9386 H   0  0  0  0  0  0  0  0  0  0  0  0
  1  2  1  0
  2  3  1  0
  3  4  1  0
  4  5  2  0
  4  6  1  0
  6  7  1  0
  6  8  1  0
  8  9  1  0
  9 10  2  0
 10 11  1  0
 11 12  2  0
 11 13  1  0
 10 14  1  0
 14 15  1  0
 15 16  1  0
 16 17  2  0
 17 18  1  0
 18 19  2  0
 19 20  1  0
 20 21  2  0
 21 22  1  0
 22 23  2  0
 23 24  1  0
 24 25  2  0
 14 26  1  0
 26 27  2  0
 27 28  1  0
 28 29  2  0
 29 30  1  0
 29 31  1  0
 31 32  2  0
 32  9  1  0
 25 16  1  0
 32 26  1  0
 25 20  1  0
  1 33  1  0
  1 34  1  0
  1 35  1  0
  2 36  1  0
  2 37  1  0
  7 38  1  0
  7 39  1  0
  7 40  1  0
  8 41  1  0
  8 42  1  0
 15 43  1  0
 15 44  1  0
 17 45  1  0
 18 46  1  0
 19 47  1  0
 21 48  1  0
 22 49  1  0
 23 50  1  0
 24 51  1  0
 27 52  1  0
 28 53  1  0
 31 54  1  0
M  CHG  1  13  -1
M  END
>  <meeko>  (13) 
{"free_energy": -6.47, "intermolecular_energy": -8.85, "internal_energy": -1.51, "cluster_size": 253, "cluster_id": 8, "rank_in_cluster": 60}

$$$$

     RDKit          3D

 54 57  0  0  0  0  0  0  0  0999 V2000
    7.5100   35.8010   16.2670 C   0  0  0  0  0  0  0  0  0  0  0  0
    8.5860   35.1020   15.4320 C   0  0  0  0  0  0  0  0  0  0  0  0
    8.5140   35.5670   14.0940 O   0  0  0  0  0  0  0  0  0  0  0  0
    9.6450   35.7510   13.3800 C   0  0  0  0  0  0  0  0  0  0  0  0
   10.5610   34.9280   13.3380 O   0  0  0  0  0  0  0  0  0  0  0  0
    9.6100   36.9820   12.7120 N   0  0  0  0  0  0  0  0  0  0  0  0
    9.6330   38.2610   13.4300 C   0  0  0  0  0  0  0  0  0  0  0  0
    9.5180   37.0510   11.2470 C   0  0  0  0  0  0  0  0  0  0  0  0
   10.3410   38.1820   10.6750 C   0  0  0  0  0  0  0  0  0  0  0  0
    9.9220   39.4320   10.2550 C   0  0  0  0  0  0  0  0  0  0  0  0
    8.5530   40.0360   10.2770 C   0  0  0  0  0  0  0  0  0  0  0  0
    7.7830   39.8130    9.3180 O   0  0  0  0  0  0  0  0  0  0  0  0
    8.1950   40.7660   11.2270 O   0  0  0  0  0  1  0  0  0  0  0  0
   11.0310   40.1310    9.7340 N   0  0  0  0  0  0  0  0  0  0  0  0
   11.0740   41.4890    9.1830 C   0  0  0  0  0  0  0  0  0  0  0  0
   12.0280   42.4480    9.9070 C   0  0  0  0  0  0  0  0  0  0  0  0
   13.0650   43.1100    9.2020 C   0  0  0  0  0  0  0  0  0  0  0  0
   13.9410   43.9900    9.8610 C   0  0  0  0  0  0  0  0  0  0  0  0
   13.7980   44.2230   11.2380 C   0  0  0  0  0  0  0  0  0  0  0  0
   12.7770   43.5760   11.9610 C   0  0  0  0  0  0  0  0  0  0  0  0
   12.6490   43.8220   13.3430 C   0  0  0  0  0  0  0  0  0  0  0  0
   11.6370   43.1860   14.0850 C   0  0  0  0  0  0  0  0  0  0  0  0
   10.7490   42.3040   13.4440 C   0  0  0  0  0  0  0  0  0  0  0  0
   10.8730   42.0540   12.0640 C   0  0  0  0  0  0  0  0  0  0  0  0
   11.8870   42.6850   11.3010 C   0  0  0  0  0  0  0  0  0  0  0  0
   12.1600   39.3280    9.8200 C   0  0  0  0  0  0  0  0  0  0  0  0
   13.4990   39.5430    9.4310 C   0  0  0  0  0  0  0  0  0  0  0  0
   14.4610   38.5420    9.6470 C   0  0  0  0  0  0  0  0  0  0  0  0
   14.0820   37.3310   10.2520 C   0  0  0  0  0  0  0  0  0  0  0  0
   15.0060   36.3640   10.4670 F   0  0  0  0  0  0  0  0  0  0  0  0
   12.7430   37.1220   10.6340 C   0  0  0  0  0  0  0  0  0  0  0  0
   11.7500   38.1090   10.4230 C   0  0  0  0  0  0  0  0  0  0  0  0
    7.7266   35.6603   17.3362 H   0  0  0  0  0  0  0  0  0  0  0  0
    7.5044   36.8757   16.0324 H   0  0  0  0  0  0  0  0  0  0  0  0
    6.5258   35.3693   16.0324 H   0  0  0  0  0  0  0  0  0  0  0  0
    9.5790   35.3289   15.8473 H   0  0  0  0  0  0  0  0  0  0  0  0
    8.4223   34.0145   15.4544 H   0  0  0  0  0  0  0  0  0  0  0  0
    9.6296   38.0732   14.5138 H   0  0  0  0  0  0  0  0  0  0  0  0
   10.5413   38.8183   13.1573 H   0  0  0  0  0  0  0  0  0  0  0  0
    8.7453   38.8506   13.1573 H   0  0  0  0  0  0  0  0  0  0  0  0
    9.8789   36.1017   10.8245 H   0  0  0  0  0  0  0  0  0  0  0  0
    8.4657   37.2328   10.9834 H   0  0  0  0  0  0  0  0  0  0  0  0
   11.3897   41.4216    8.1314 H   0  0  0  0  0  0  0  0  0  0  0  0
   10.0635   41.9054    9.3074 H   0  0  0  0  0  0  0  0  0  0  0  0
   13.1858   42.9323    8.1232 H   0  0  0  0  0  0  0  0  0  0  0  0
   14.7387   44.4962    9.2976 H   0  0  0  0  0  0  0  0  0  0  0  0
   14.4841   44.9116   11.7528 H   0  0  0  0  0  0  0  0  0  0  0  0
   13.3428   44.5137   13.8431 H   0  0  0  0  0  0  0  0  0  0  0  0
   11.5406   43.3782   15.1638 H   0  0  0  0  0  0  0  0  0  0  0  0
    9.9554   41.8081   14.0222 H   0  0  0  0  0  0  0  0  0  0  0  0
   10.1747   41.3608   11.5723 H   0  0  0  0  0  0  0  0  0  0  0  0
   13.7895   40.4932    8.9591 H   0  0  0  0  0  0  0  0  0  0  0  0
   15.5058   38.7051    9.3441 H   0  0  0  0  0  0  0  0  0  0  0  0
   12.4618   36.1697   11.1074 H   0  0  0  0  0  0  0  0  0  0  0  0
  1  2  1  0
  2  3  1  0
  3  4  1  0
  4  5  2  0
  4  6  1  0
  6  7  1  0
  6  8  1  0
  8  9  1  0
  9 10  2  0
 10 11  1  0
 11 12  2  0
 11 13  1  0
 10 14  1  0
 14 15  1  0
 15 16  1  0
 16 17  2  0
 17 18  1  0
 18 19  2  0
 19 20  1  0
 20 21  2  0
 21 22  1  0
 22 23  2  0
 23 24  1  0
 24 25  2  0
 14 26  1  0
 26 27  2  0
 27 28  1  0
 28 29  2  0
 29 30  1  0
 29 31  1  0
 31 32  2  0
 32  9  1  0
 25 16  1  0
 32 26  1  0
 25 20  1  0
  1 33  1  0
  1 34  1  0
  1 35  1  0
  2 36  1  0
  2 37  1  0
  7 38  1  0
  7 39  1  0
  7 40  1  0
  8 41  1  0
  8 42  1  0
 15 43  1  0
 15 44  1  0
 17 45  1  0
 18 46  1  0
 19 47  1  0
 21 48  1  0
 22 49  1  0
 23 50  1  0
 24 51  1  0
 27 52  1  0
 28 53  1  0
 31 54  1  0
M  CHG  1  13  -1
M  END
>  <meeko>  (14) 
{"free_energy": -4.48, "intermolecular_energy": -6.87, "internal_energy": -2.1, "cluster_size": 6, "cluster_id": 150, "rank_in_cluster": 5}

$$$$

     RDKit          3D

 54 57  0  0  0  0  0  0  0  0999 V2000
    2.0340   36.4500   21.2560 C   0  0  0  0  0  0  0  0  0  0  0  0
    2.8660   37.6590   20.8220 C   0  0  0  0  0  0  0  0  0  0  0  0
    4.1480   37.2190   20.4070 O   0  0  0  0  0  0  0  0  0  0  0  0
    4.7240   37.7530   19.3080 C   0  0  0  0  0  0  0  0  0  0  0  0
    4.5340   38.9130   18.9400 O   0  0  0  0  0  0  0  0  0  0  0  0
    5.5480   36.8120   18.6780 N   0  0  0  0  0  0  0  0  0  0  0  0
    5.8920   35.5310   19.3060 C   0  0  0  0  0  0  0  0  0  0  0  0
    6.1360   37.0760   17.3580 C   0  0  0  0  0  0  0  0  0  0  0  0
    7.6340   36.8810   17.3500 C   0  0  0  0  0  0  0  0  0  0  0  0
    8.6220   37.7340   17.8100 C   0  0  0  0  0  0  0  0  0  0  0  0
    8.4960   39.0690   18.4740 C   0  0  0  0  0  0  0  0  0  0  0  0
    9.5210   39.7710   18.6090 O   0  0  0  0  0  0  0  0  0  0  0  0
    7.3900   39.4660   18.9020 O   0  0  0  0  0  1  0  0  0  0  0  0
    9.8820   37.1600   17.5360 N   0  0  0  0  0  0  0  0  0  0  0  0
   11.2120   37.6920   17.8470 C   0  0  0  0  0  0  0  0  0  0  0  0
   11.7650   37.2840   19.2190 C   0  0  0  0  0  0  0  0  0  0  0  0
   11.0120   37.5050   20.4000 C   0  0  0  0  0  0  0  0  0  0  0  0
   11.5140   37.1330   21.6590 C   0  0  0  0  0  0  0  0  0  0  0  0
   12.7800   36.5350   21.7610 C   0  0  0  0  0  0  0  0  0  0  0  0
   13.5480   36.3070   20.6030 C   0  0  0  0  0  0  0  0  0  0  0  0
   14.8180   35.7060   20.7250 C   0  0  0  0  0  0  0  0  0  0  0  0
   15.6030   35.4690   19.5820 C   0  0  0  0  0  0  0  0  0  0  0  0
   15.1170   35.8330   18.3130 C   0  0  0  0  0  0  0  0  0  0  0  0
   13.8510   36.4340   18.1850 C   0  0  0  0  0  0  0  0  0  0  0  0
   13.0470   36.6800   19.3260 C   0  0  0  0  0  0  0  0  0  0  0  0
    9.7000   35.9390   16.9000 C   0  0  0  0  0  0  0  0  0  0  0  0
   10.6190   34.9880   16.4100 C   0  0  0  0  0  0  0  0  0  0  0  0
   10.1530   33.8090   15.8050 C   0  0  0  0  0  0  0  0  0  0  0  0
    8.7700   33.5830   15.6950 C   0  0  0  0  0  0  0  0  0  0  0  0
    8.3140   32.4470   15.1170 F   0  0  0  0  0  0  0  0  0  0  0  0
    7.8580   34.5390   16.1840 C   0  0  0  0  0  0  0  0  0  0  0  0
    8.2980   35.7390   16.7920 C   0  0  0  0  0  0  0  0  0  0  0  0
    2.0014   36.4026   22.3545 H   0  0  0  0  0  0  0  0  0  0  0  0
    1.0114   36.5484   20.8627 H   0  0  0  0  0  0  0  0  0  0  0  0
    2.4912   35.5300   20.8627 H   0  0  0  0  0  0  0  0  0  0  0  0
    2.3644   38.1699   19.9869 H   0  0  0  0  0  0  0  0  0  0  0  0
    2.9705   38.3572   21.6656 H   0  0  0  0  0  0  0  0  0  0  0  0
    5.8628   35.6396   20.4002 H   0  0  0  0  0  0  0  0  0  0  0  0
    5.1681   34.7637   18.9942 H   0  0  0  0  0  0  0  0  0  0  0  0
    6.9029   35.2296   18.9942 H   0  0  0  0  0  0  0  0  0  0  0  0
    5.6857   36.3893   16.6261 H   0  0  0  0  0  0  0  0  0  0  0  0
    5.9313   38.1259   17.1015 H   0  0  0  0  0  0  0  0  0  0  0  0
   11.9116   37.3356   17.0766 H   0  0  0  0  0  0  0  0  0  0  0  0
   11.1097   38.7870   17.8682 H   0  0  0  0  0  0  0  0  0  0  0  0
   10.0198   37.9748   20.3298 H   0  0  0  0  0  0  0  0  0  0  0  0
   10.9149   37.3104   22.5643 H   0  0  0  0  0  0  0  0  0  0  0  0
   13.1725   36.2442   22.7466 H   0  0  0  0  0  0  0  0  0  0  0  0
   15.1962   35.4214   21.7179 H   0  0  0  0  0  0  0  0  0  0  0  0
   16.5935   35.0007   19.6801 H   0  0  0  0  0  0  0  0  0  0  0  0
   15.7286   35.6472   17.4178 H   0  0  0  0  0  0  0  0  0  0  0  0
   13.4812   36.7160   17.1881 H   0  0  0  0  0  0  0  0  0  0  0  0
   11.7001   35.1694   16.5015 H   0  0  0  0  0  0  0  0  0  0  0  0
   10.8668   33.0663   15.4192 H   0  0  0  0  0  0  0  0  0  0  0  0
    6.7786   34.3483   16.0911 H   0  0  0  0  0  0  0  0  0  0  0  0
  1  2  1  0
  2  3  1  0
  3  4  1  0
  4  5  2  0
  4  6  1  0
  6  7  1  0
  6  8  1  0
  8  9  1  0
  9 10  2  0
 10 11  1  0
 11 12  2  0
 11 13  1  0
 10 14  1  0
 14 15  1  0
 15 16  1  0
 16 17  2  0
 17 18  1  0
 18 19  2  0
 19 20  1  0
 20 21  2  0
 21 22  1  0
 22 23  2  0
 23 24  1  0
 24 25  2  0
 14 26  1  0
 26 27  2  0
 27 28  1  0
 28 29  2  0
 29 30  1  0
 29 31  1  0
 31 32  2  0
 32  9  1  0
 25 16  1  0
 32 26  1  0
 25 20  1  0
  1 33  1  0
  1 34  1  0
  1 35  1  0
  2 36  1  0
  2 37  1  0
  7 38  1  0
  7 39  1  0
  7 40  1  0
  8 41  1  0
  8 42  1  0
 15 43  1  0
 15 44  1  0
 17 45  1  0
 18 46  1  0
 19 47  1  0
 21 48  1  0
 22 49  1  0
 23 50  1  0
 24 51  1  0
 27 52  1  0
 28 53  1  0
 31 54  1  0
M  CHG  1  13  -1
M  END
>  <meeko>  (15) 
{"free_energy": -6.16, "intermolecular_energy": -8.55, "internal_energy": -1.67, "cluster_size": 47, "cluster_id": 16, "rank_in_cluster": 10}

$$$$

     RDKit          3D

 54 57  0  0  0  0  0  0  0  0999 V2000
    8.7440   41.5090   19.0420 C   0  0  0  0  0  0  0  0  0  0  0  0
    8.1200   40.2410   19.6290 C   0  0  0  0  0  0  0  0  0  0  0  0
    8.1230   39.2200   18.6450 O   0  0  0  0  0  0  0  0  0  0  0  0
    8.5820   37.9870   18.9500 C   0  0  0  0  0  0  0  0  0  0  0  0
    8.3840   37.4400   20.0360 O   0  0  0  0  0  0  0  0  0  0  0  0
    9.2890   37.4440   17.8690 N   0  0  0  0  0  0  0  0  0  0  0  0
   10.7510   37.3210   17.8760 C   0  0  0  0  0  0  0  0  0  0  0  0
    8.5960   36.9940   16.6550 C   0  0  0  0  0  0  0  0  0  0  0  0
    9.2290   37.5440   15.3980 C   0  0  0  0  0  0  0  0  0  0  0  0
    9.5370   36.8820   14.2220 C   0  0  0  0  0  0  0  0  0  0  0  0
    9.3030   35.4540   13.8410 C   0  0  0  0  0  0  0  0  0  0  0  0
    8.1270   35.0370   13.7690 O   0  0  0  0  0  0  0  0  0  0  0  0
   10.2660   34.6890   13.6190 O   0  0  0  0  0  1  0  0  0  0  0  0
   10.1770   37.7860   13.3470 N   0  0  0  0  0  0  0  0  0  0  0  0
   10.6730   37.5410   11.9890 C   0  0  0  0  0  0  0  0  0  0  0  0
    9.7790   38.0870   10.8680 C   0  0  0  0  0  0  0  0  0  0  0  0
    9.7150   39.4780   10.6030 C   0  0  0  0  0  0  0  0  0  0  0  0
    8.8970   39.9820    9.5760 C   0  0  0  0  0  0  0  0  0  0  0  0
    8.1260   39.1050    8.7970 C   0  0  0  0  0  0  0  0  0  0  0  0
    8.1710   37.7190    9.0430 C   0  0  0  0  0  0  0  0  0  0  0  0
    7.3900   36.8520    8.2510 C   0  0  0  0  0  0  0  0  0  0  0  0
    7.4190   35.4650    8.4780 C   0  0  0  0  0  0  0  0  0  0  0  0
    8.2310   34.9410    9.4990 C   0  0  0  0  0  0  0  0  0  0  0  0
    9.0130   35.8010   10.2940 C   0  0  0  0  0  0  0  0  0  0  0  0
    8.9960   37.2010   10.0780 C   0  0  0  0  0  0  0  0  0  0  0  0
   10.2790   39.0260   13.9640 C   0  0  0  0  0  0  0  0  0  0  0  0
   10.8390   40.2460   13.5330 C   0  0  0  0  0  0  0  0  0  0  0  0
   10.7980   41.3710   14.3730 C   0  0  0  0  0  0  0  0  0  0  0  0
   10.1970   41.2730   15.6400 C   0  0  0  0  0  0  0  0  0  0  0  0
   10.1500   42.3550   16.4530 F   0  0  0  0  0  0  0  0  0  0  0  0
    9.6430   40.0500   16.0640 C   0  0  0  0  0  0  0  0  0  0  0  0
    9.6750   38.8970   15.2430 C   0  0  0  0  0  0  0  0  0  0  0  0
    9.0692   42.1698   19.8591 H   0  0  0  0  0  0  0  0  0  0  0  0
    9.6115   41.2378   18.4225 H   0  0  0  0  0  0  0  0  0  0  0  0
    7.9998   42.0309   18.4225 H   0  0  0  0  0  0  0  0  0  0  0  0
    8.7049   39.9130   20.5009 H   0  0  0  0  0  0  0  0  0  0  0  0
    7.0861   40.4491   19.9417 H   0  0  0  0  0  0  0  0  0  0  0  0
   11.1114   37.2907   18.9148 H   0  0  0  0  0  0  0  0  0  0  0  0
   11.0435   36.3951   17.3592 H   0  0  0  0  0  0  0  0  0  0  0  0
   11.1941   38.1850   17.3592 H   0  0  0  0  0  0  0  0  0  0  0  0
    8.6279   35.8952   16.6159 H   0  0  0  0  0  0  0  0  0  0  0  0
    7.5610   37.3637   16.7009 H   0  0  0  0  0  0  0  0  0  0  0  0
   11.6631   38.0113   11.8965 H   0  0  0  0  0  0  0  0  0  0  0  0
   10.6970   36.4487   11.8610 H   0  0  0  0  0  0  0  0  0  0  0  0
   10.3139   40.1734   11.2095 H   0  0  0  0  0  0  0  0  0  0  0  0
    8.8613   41.0644    9.3830 H   0  0  0  0  0  0  0  0  0  0  0  0
    7.4864   39.5004    7.9941 H   0  0  0  0  0  0  0  0  0  0  0  0
    6.7553   37.2629    7.4521 H   0  0  0  0  0  0  0  0  0  0  0  0
    6.8082   34.7917    7.8586 H   0  0  0  0  0  0  0  0  0  0  0  0
    8.2556   33.8559    9.6775 H   0  0  0  0  0  0  0  0  0  0  0  0
    9.6439   35.3812   11.0913 H   0  0  0  0  0  0  0  0  0  0  0  0
   11.3074   40.3167   12.5402 H   0  0  0  0  0  0  0  0  0  0  0  0
   11.2343   42.3246   14.0408 H   0  0  0  0  0  0  0  0  0  0  0  0
    9.1740   39.9889   17.0571 H   0  0  0  0  0  0  0  0  0  0  0  0
  1  2  1  0
  2  3  1  0
  3  4  1  0
  4  5  2  0
  4  6  1  0
  6  7  1  0
  6  8  1  0
  8  9  1  0
  9 10  2  0
 10 11  1  0
 11 12  2  0
 11 13  1  0
 10 14  1  0
 14 15  1  0
 15 16  1  0
 16 17  2  0
 17 18  1  0
 18 19  2  0
 19 20  1  0
 20 21  2  0
 21 22  1  0
 22 23  2  0
 23 24  1  0
 24 25  2  0
 14 26  1  0
 26 27  2  0
 27 28  1  0
 28 29  2  0
 29 30  1  0
 29 31  1  0
 31 32  2  0
 32  9  1  0
 25 16  1  0
 32 26  1  0
 25 20  1  0
  1 33  1  0
  1 34  1  0
  1 35  1  0
  2 36  1  0
  2 37  1  0
  7 38  1  0
  7 39  1  0
  7 40  1  0
  8 41  1  0
  8 42  1  0
 15 43  1  0
 15 44  1  0
 17 45  1  0
 18 46  1  0
 19 47  1  0
 21 48  1  0
 22 49  1  0
 23 50  1  0
 24 51  1  0
 27 52  1  0
 28 53  1  0
 31 54  1  0
M  CHG  1  13  -1
M  END
>  <meeko>  (16) 
{"free_energy": -6.64, "intermolecular_energy": -9.03, "internal_energy": -2.0, "cluster_size": 163, "cluster_id": 4, "rank_in_cluster": 54}

$$$$

     RDKit          3D

 54 57  0  0  0  0  0  0  0  0999 V2000
   12.2890   40.5920    9.2120 C   0  0  0  0  0  0  0  0  0  0  0  0
   11.9560   39.2580    9.8850 C   0  0  0  0  0  0  0  0  0  0  0  0
   10.9490   38.5960    9.1380 O   0  0  0  0  0  0  0  0  0  0  0  0
    9.7640   38.2990    9.7130 C   0  0  0  0  0  0  0  0  0  0  0  0
    8.7250   38.9200    9.4840 O   0  0  0  0  0  0  0  0  0  0  0  0
    9.8980   37.2060   10.5790 N   0  0  0  0  0  0  0  0  0  0  0  0
   11.0290   36.2750   10.4900 C   0  0  0  0  0  0  0  0  0  0  0  0
    8.8900   36.9200   11.6070 C   0  0  0  0  0  0  0  0  0  0  0  0
    9.4460   37.0460   13.0060 C   0  0  0  0  0  0  0  0  0  0  0  0
   10.1330   38.1050   13.5730 C   0  0  0  0  0  0  0  0  0  0  0  0
   10.4900   39.4350   12.9860 C   0  0  0  0  0  0  0  0  0  0  0  0
   11.6840   39.8020   13.0140 O   0  0  0  0  0  0  0  0  0  0  0  0
    9.6070   40.1720   12.4960 O   0  0  0  0  0  1  0  0  0  0  0  0
   10.5140   37.7490   14.8840 N   0  0  0  0  0  0  0  0  0  0  0  0
   11.2480   38.5500   15.8680 C   0  0  0  0  0  0  0  0  0  0  0  0
   10.6970   38.4780   17.2990 C   0  0  0  0  0  0  0  0  0  0  0  0
    9.4350   39.0380   17.6200 C   0  0  0  0  0  0  0  0  0  0  0  0
    8.9260   38.9740   18.9280 C   0  0  0  0  0  0  0  0  0  0  0  0
    9.6710   38.3500   19.9420 C   0  0  0  0  0  0  0  0  0  0  0  0
   10.9280   37.7880   19.6480 C   0  0  0  0  0  0  0  0  0  0  0  0
   11.6630   37.1650   20.6790 C   0  0  0  0  0  0  0  0  0  0  0  0
   12.9210   36.5970   20.4090 C   0  0  0  0  0  0  0  0  0  0  0  0
   13.4470   36.6500   19.1060 C   0  0  0  0  0  0  0  0  0  0  0  0
   12.7180   37.2710   18.0730 C   0  0  0  0  0  0  0  0  0  0  0  0
   11.4490   37.8480   18.3270 C   0  0  0  0  0  0  0  0  0  0  0  0
   10.0720   36.4610   15.1560 C   0  0  0  0  0  0  0  0  0  0  0  0
   10.2030   35.6440   16.2980 C   0  0  0  0  0  0  0  0  0  0  0  0
    9.6390   34.3570   16.3060 C   0  0  0  0  0  0  0  0  0  0  0  0
    8.9460   33.8920   15.1750 C   0  0  0  0  0  0  0  0  0  0  0  0
    8.3970   32.6540   15.1790 F   0  0  0  0  0  0  0  0  0  0  0  0
    8.8230   34.7130   14.0380 C   0  0  0  0  0  0  0  0  0  0  0  0
    9.3860   36.0120   13.9960 C   0  0  0  0  0  0  0  0  0  0  0  0
   12.4792   41.3539    9.9823 H   0  0  0  0  0  0  0  0  0  0  0  0
   13.1850   40.4728    8.5851 H   0  0  0  0  0  0  0  0  0  0  0  0
   11.4421   40.9079    8.5851 H   0  0  0  0  0  0  0  0  0  0  0  0
   12.8583   38.6300    9.9230 H   0  0  0  0  0  0  0  0  0  0  0  0
   11.5963   39.4407   10.9083 H   0  0  0  0  0  0  0  0  0  0  0  0
   11.3601   36.0024   11.5029 H   0  0  0  0  0  0  0  0  0  0  0  0
   10.7165   35.3690    9.9502 H   0  0  0  0  0  0  0  0  0  0  0  0
   11.8581   36.7558    9.9502 H   0  0  0  0  0  0  0  0  0  0  0  0
    8.0568   37.6289   11.4923 H   0  0  0  0  0  0  0  0  0  0  0  0
    8.5553   35.8811   11.4702 H   0  0  0  0  0  0  0  0  0  0  0  0
   12.2905   38.1994   15.8850 H   0  0  0  0  0  0  0  0  0  0  0  0
   11.1468   39.5983   15.5504 H   0  0  0  0  0  0  0  0  0  0  0  0
    8.8450   39.5303   16.8329 H   0  0  0  0  0  0  0  0  0  0  0  0
    7.9438   39.4127   19.1579 H   0  0  0  0  0  0  0  0  0  0  0  0
    9.2724   38.3004   20.9660 H   0  0  0  0  0  0  0  0  0  0  0  0
   11.2504   37.1234   21.6978 H   0  0  0  0  0  0  0  0  0  0  0  0
   13.4919   36.1126   21.2149 H   0  0  0  0  0  0  0  0  0  0  0  0
   14.4303   36.2054   18.8928 H   0  0  0  0  0  0  0  0  0  0  0  0
   13.1387   37.3085   17.0573 H   0  0  0  0  0  0  0  0  0  0  0  0
   10.7456   36.0135   17.1807 H   0  0  0  0  0  0  0  0  0  0  0  0
    9.7395   33.7158   17.1941 H   0  0  0  0  0  0  0  0  0  0  0  0
    8.2763   34.3365   13.1609 H   0  0  0  0  0  0  0  0  0  0  0  0
  1  2  1  0
  2  3  1  0
  3  4  1  0
  4  5  2  0
  4  6  1  0
  6  7  1  0
  6  8  1  0
  8  9  1  0
  9 10  2  0
 10 11  1  0
 11 12  2  0
 11 13  1  0
 10 14  1  0
 14 15  1  0
 15 16  1  0
 16 17  2  0
 17 18  1  0
 18 19  2  0
 19 20  1  0
 20 21  2  0
 21 22  1  0
 22 23  2  0
 23 24  1  0
 24 25  2  0
 14 26  1  0
 26 27  2  0
 27 28  1  0
 28 29  2  0
 29 30  1  0
 29 31  1  0
 31 32  2  0
 32  9  1  0
 25 16  1  0
 32 26  1  0
 25 20  1  0
  1 33  1  0
  1 34  1  0
  1 35  1  0
  2 36  1  0
  2 37  1  0
  7 38  1  0
  7 39  1  0
  7 40  1  0
  8 41  1  0
  8 42  1  0
 15 43  1  0
 15 44  1  0
 17 45  1  0
 18 46  1  0
 19 47  1  0
 21 48  1  0
 22 49  1  0
 23 50  1  0
 24 51  1  0
 27 52  1  0
 28 53  1  0
 31 54  1  0
M  CHG  1  13  -1
M  END
>  <meeko>  (17) 
{"free_energy": -4.83, "intermolecular_energy": -7.21, "internal_energy": -2.01, "cluster_size": 34, "cluster_id": 135, "rank_in_cluster": 15}

$$$$

     RDKit          3D

 54 57  0  0  0  0  0  0  0  0999 V2000
    5.1600   44.0190   12.8620 C   0  0  0  0  0  0  0  0  0  0  0  0
    6.3640   43.9530   13.8060 C   0  0  0  0  0  0  0  0  0  0  0  0
    7.2540   42.9440   13.3570 O   0  0  0  0  0  0  0  0  0  0  0  0
    8.4950   42.8540   13.8810 C   0  0  0  0  0  0  0  0  0  0  0  0
    8.7480   42.2480   14.9230 O   0  0  0  0  0  0  0  0  0  0  0  0
    9.4190   43.5320   13.0750 N   0  0  0  0  0  0  0  0  0  0  0  0
    9.3980   44.9910   12.9220 C   0  0  0  0  0  0  0  0  0  0  0  0
   10.4440   42.8050   12.3150 C   0  0  0  0  0  0  0  0  0  0  0  0
   10.3560   41.3110   12.5190 C   0  0  0  0  0  0  0  0  0  0  0  0
   10.9050   40.5400   13.5280 C   0  0  0  0  0  0  0  0  0  0  0  0
   11.7090   40.9600   14.7190 C   0  0  0  0  0  0  0  0  0  0  0  0
   11.5270   42.1010   15.1940 O   0  0  0  0  0  0  0  0  0  0  0  0
   12.5590   40.1890   15.2160 O   0  0  0  0  0  1  0  0  0  0  0  0
   10.6140   39.1830   13.2730 N   0  0  0  0  0  0  0  0  0  0  0  0
   10.9800   38.0080   14.0690 C   0  0  0  0  0  0  0  0  0  0  0  0
   10.0910   37.7570   15.2940 C   0  0  0  0  0  0  0  0  0  0  0  0
    9.9030   38.7640   16.2740 C   0  0  0  0  0  0  0  0  0  0  0  0
    9.0890   38.5380   17.3980 C   0  0  0  0  0  0  0  0  0  0  0  0
    8.4490   37.2990   17.5640 C   0  0  0  0  0  0  0  0  0  0  0  0
    8.6210   36.2830   16.6050 C   0  0  0  0  0  0  0  0  0  0  0  0
    7.9710   35.0450   16.7890 C   0  0  0  0  0  0  0  0  0  0  0  0
    8.1290   34.0150   15.8450 C   0  0  0  0  0  0  0  0  0  0  0  0
    8.9380   34.2210   14.7130 C   0  0  0  0  0  0  0  0  0  0  0  0
    9.5900   35.4550   14.5250 C   0  0  0  0  0  0  0  0  0  0  0  0
    9.4420   36.5030   15.4660 C   0  0  0  0  0  0  0  0  0  0  0  0
    9.8790   39.0850   12.0990 C   0  0  0  0  0  0  0  0  0  0  0  0
    9.3580   37.9730   11.4060 C   0  0  0  0  0  0  0  0  0  0  0  0
    8.6280   38.1650   10.2210 C   0  0  0  0  0  0  0  0  0  0  0  0
    8.4200   39.4670    9.7340 C   0  0  0  0  0  0  0  0  0  0  0  0
    7.7150   39.6580    8.5940 F   0  0  0  0  0  0  0  0  0  0  0  0
    8.9470   40.5720   10.4290 C   0  0  0  0  0  0  0  0  0  0  0  0
    9.6920   40.4100   11.6230 C   0  0  0  0  0  0  0  0  0  0  0  0
    4.2334   44.0698   13.4526 H   0  0  0  0  0  0  0  0  0  0  0  0
    5.2401   44.9141   12.2277 H   0  0  0  0  0  0  0  0  0  0  0  0
    5.1417   43.1205   12.2277 H   0  0  0  0  0  0  0  0  0  0  0  0
    6.8810   44.9239   13.8112 H   0  0  0  0  0  0  0  0  0  0  0  0
    6.0223   43.7177   14.8248 H   0  0  0  0  0  0  0  0  0  0  0  0
    9.3912   45.4638   13.9152 H   0  0  0  0  0  0  0  0  0  0  0  0
   10.2916   45.3145   12.3680 H   0  0  0  0  0  0  0  0  0  0  0  0
    8.4955   45.2886   12.3680 H   0  0  0  0  0  0  0  0  0  0  0  0
   10.3133   43.0244   11.2451 H   0  0  0  0  0  0  0  0  0  0  0  0
   11.4290   43.1367   12.6753 H   0  0  0  0  0  0  0  0  0  0  0  0
   10.9234   37.1229   13.4183 H   0  0  0  0  0  0  0  0  0  0  0  0
   11.9920   38.1994   14.4554 H   0  0  0  0  0  0  0  0  0  0  0  0
   10.4016   39.7371   16.1532 H   0  0  0  0  0  0  0  0  0  0  0  0
    8.9535   39.3317   18.1474 H   0  0  0  0  0  0  0  0  0  0  0  0
    7.8129   37.1224   18.4439 H   0  0  0  0  0  0  0  0  0  0  0  0
    7.3381   34.8846   17.6743 H   0  0  0  0  0  0  0  0  0  0  0  0
    7.6211   33.0503   15.9914 H   0  0  0  0  0  0  0  0  0  0  0  0
    9.0617   33.4166   13.9730 H   0  0  0  0  0  0  0  0  0  0  0  0
   10.2214   35.6066   13.6371 H   0  0  0  0  0  0  0  0  0  0  0  0
    9.5229   36.9565   11.7927 H   0  0  0  0  0  0  0  0  0  0  0  0
    8.2210   37.3001    9.6767 H   0  0  0  0  0  0  0  0  0  0  0  0
    8.7763   41.5850   10.0357 H   0  0  0  0  0  0  0  0  0  0  0  0
  1  2  1  0
  2  3  1  0
  3  4  1  0
  4  5  2  0
  4  6  1  0
  6  7  1  0
  6  8  1  0
  8  9  1  0
  9 10  2  0
 10 11  1  0
 11 12  2  0
 11 13  1  0
 10 14  1  0
 14 15  1  0
 15 16  1  0
 16 17  2  0
 17 18  1  0
 18 19  2  0
 19 20  1  0
 20 21  2  0
 21 22  1  0
 22 23  2  0
 23 24  1  0
 24 25  2  0
 14 26  1  0
 26 27  2  0
 27 28  1  0
 28 29  2  0
 29 30  1  0
 29 31  1  0
 31 32  2  0
 32  9  1  0
 25 16  1  0
 32 26  1  0
 25 20  1  0
  1 33  1  0
  1 34  1  0
  1 35  1  0
  2 36  1  0
  2 37  1  0
  7 38  1  0
  7 39  1  0
  7 40  1  0
  8 41  1  0
  8 42  1  0
 15 43  1  0
 15 44  1  0
 17 45  1  0
 18 46  1  0
 19 47  1  0
 21 48  1  0
 22 49  1  0
 23 50  1  0
 24 51  1  0
 27 52  1  0
 28 53  1  0
 31 54  1  0
M  CHG  1  13  -1
M  END
>  <meeko>  (18) 
{"free_energy": -5.34, "intermolecular_energy": -7.73, "internal_energy": -1.9, "cluster_size": 121, "cluster_id": 34, "rank_in_cluster": 61}

$$$$

     RDKit          3D

 54 57  0  0  0  0  0  0  0  0999 V2000
   15.3470   34.7650   10.0310 C   0  0  0  0  0  0  0  0  0  0  0  0
   14.9010   36.1680    9.6100 C   0  0  0  0  0  0  0  0  0  0  0  0
   15.3290   37.1060   10.5830 O   0  0  0  0  0  0  0  0  0  0  0  0
   14.4760   38.0520   11.0320 C   0  0  0  0  0  0  0  0  0  0  0  0
   13.5300   37.8090   11.7820 O   0  0  0  0  0  0  0  0  0  0  0  0
   14.8310   39.3110   10.5320 N   0  0  0  0  0  0  0  0  0  0  0  0
   16.1340   39.5640    9.9070 C   0  0  0  0  0  0  0  0  0  0  0  0
   13.9180   40.4570   10.6350 C   0  0  0  0  0  0  0  0  0  0  0  0
   12.6090   40.0870   11.2920 C   0  0  0  0  0  0  0  0  0  0  0  0
   11.6100   39.2510   10.8260 C   0  0  0  0  0  0  0  0  0  0  0  0
   11.5500   38.4480    9.5640 C   0  0  0  0  0  0  0  0  0  0  0  0
   11.1750   37.2580    9.6270 O   0  0  0  0  0  0  0  0  0  0  0  0
   11.8870   38.9540    8.4720 O   0  0  0  0  0  1  0  0  0  0  0  0
   10.5430   39.2570   11.7500 N   0  0  0  0  0  0  0  0  0  0  0  0
    9.2790   38.5180   11.6860 C   0  0  0  0  0  0  0  0  0  0  0  0
    8.6610   38.4170   10.2860 C   0  0  0  0  0  0  0  0  0  0  0  0
    8.5830   39.5540    9.4430 C   0  0  0  0  0  0  0  0  0  0  0  0
    8.0170   39.4670    8.1590 C   0  0  0  0  0  0  0  0  0  0  0  0
    7.5160   38.2400    7.6950 C   0  0  0  0  0  0  0  0  0  0  0  0
    7.5800   37.0970    8.5130 C   0  0  0  0  0  0  0  0  0  0  0  0
    7.0720   35.8730    8.0310 C   0  0  0  0  0  0  0  0  0  0  0  0
    7.1240   34.7190    8.8310 C   0  0  0  0  0  0  0  0  0  0  0  0
    7.6880   34.7850   10.1180 C   0  0  0  0  0  0  0  0  0  0  0  0
    8.1970   36.0040   10.6060 C   0  0  0  0  0  0  0  0  0  0  0  0
    8.1520   37.1770    9.8130 C   0  0  0  0  0  0  0  0  0  0  0  0
   10.8600   40.0990   12.8080 C   0  0  0  0  0  0  0  0  0  0  0  0
   10.1430   40.4610   13.9670 C   0  0  0  0  0  0  0  0  0  0  0  0
   10.7150   41.3450   14.8980 C   0  0  0  0  0  0  0  0  0  0  0  0
   12.0020   41.8600   14.6680 C   0  0  0  0  0  0  0  0  0  0  0  0
   12.5610   42.7090   15.5630 F   0  0  0  0  0  0  0  0  0  0  0  0
   12.7110   41.4960   13.5060 C   0  0  0  0  0  0  0  0  0  0  0  0
   12.1570   40.6140   12.5470 C   0  0  0  0  0  0  0  0  0  0  0  0
   15.3674   34.7008   11.1289 H   0  0  0  0  0  0  0  0  0  0  0  0
   14.6411   34.0211    9.6333 H   0  0  0  0  0  0  0  0  0  0  0  0
   16.3529   34.5653    9.6333 H   0  0  0  0  0  0  0  0  0  0  0  0
   15.3470   36.4189    8.6363 H   0  0  0  0  0  0  0  0  0  0  0  0
   13.8046   36.1972    9.5265 H   0  0  0  0  0  0  0  0  0  0  0  0
   16.8934   39.7114   10.6891 H   0  0  0  0  0  0  0  0  0  0  0  0
   16.4140   38.7034    9.2817 H   0  0  0  0  0  0  0  0  0  0  0  0
   16.0716   40.4668    9.2817 H   0  0  0  0  0  0  0  0  0  0  0  0
   14.4033   41.2440   11.2308 H   0  0  0  0  0  0  0  0  0  0  0  0
   13.6972   40.8053    9.6152 H   0  0  0  0  0  0  0  0  0  0  0  0
    9.4607   37.4974   12.0539 H   0  0  0  0  0  0  0  0  0  0  0  0
    8.5609   39.0806   12.3007 H   0  0  0  0  0  0  0  0  0  0  0  0
    8.9714   40.5196    9.7991 H   0  0  0  0  0  0  0  0  0  0  0  0
    7.9666   40.3596    7.5182 H   0  0  0  0  0  0  0  0  0  0  0  0
    7.0728   38.1723    6.6905 H   0  0  0  0  0  0  0  0  0  0  0  0
    6.6329   35.8214    7.0238 H   0  0  0  0  0  0  0  0  0  0  0  0
    6.7248   33.7667    8.4519 H   0  0  0  0  0  0  0  0  0  0  0  0
    7.7316   33.8821   10.7448 H   0  0  0  0  0  0  0  0  0  0  0  0
    8.6345   36.0458   11.6144 H   0  0  0  0  0  0  0  0  0  0  0  0
    9.1370   40.0519   14.1423 H   0  0  0  0  0  0  0  0  0  0  0  0
   10.1580   41.6322   15.8020 H   0  0  0  0  0  0  0  0  0  0  0  0
   13.7180   41.9065   13.3402 H   0  0  0  0  0  0  0  0  0  0  0  0
  1  2  1  0
  2  3  1  0
  3  4  1  0
  4  5  2  0
  4  6  1  0
  6  7  1  0
  6  8  1  0
  8  9  1  0
  9 10  2  0
 10 11  1  0
 11 12  2  0
 11 13  1  0
 10 14  1  0
 14 15  1  0
 15 16  1  0
 16 17  2  0
 17 18  1  0
 18 19  2  0
 19 20  1  0
 20 21  2  0
 21 22  1  0
 22 23  2  0
 23 24  1  0
 24 25  2  0
 14 26  1  0
 26 27  2  0
 27 28  1  0
 28 29  2  0
 29 30  1  0
 29 31  1  0
 31 32  2  0
 32  9  1  0
 25 16  1  0
 32 26  1  0
 25 20  1  0
  1 33  1  0
  1 34  1  0
  1 35  1  0
  2 36  1  0
  2 37  1  0
  7 38  1  0
  7 39  1  0
  7 40  1  0
  8 41  1  0
  8 42  1  0
 15 43  1  0
 15 44  1  0
 17 45  1  0
 18 46  1  0
 19 47  1  0
 21 48  1  0
 22 49  1  0
 23 50  1  0
 24 51  1  0
 27 52  1  0
 28 53  1  0
 31 54  1  0
M  CHG  1  13  -1
M  END
>  <meeko>  (19) 
{"free_energy": -6.37, "intermolecular_energy": -8.75, "internal_energy": -1.08, "cluster_size": 417, "cluster_id": 2, "rank_in_cluster": 225}

$$$$

     RDKit          3D

 54 57  0  0  0  0  0  0  0  0999 V2000
   17.7830   39.2630   14.5600 C   0  0  0  0  0  0  0  0  0  0  0  0
   17.0650   37.9820   14.1300 C   0  0  0  0  0  0  0  0  0  0  0  0
   17.3940   37.6920   12.7810 O   0  0  0  0  0  0  0  0  0  0  0  0
   17.5560   38.6970   11.8940 C   0  0  0  0  0  0  0  0  0  0  0  0
   18.6510   39.1930   11.6230 O   0  0  0  0  0  0  0  0  0  0  0  0
   16.3230   39.0700   11.3430 N   0  0  0  0  0  0  0  0  0  0  0  0
   16.0760   40.4200   10.8240 C   0  0  0  0  0  0  0  0  0  0  0  0
   15.1980   38.1270   11.2850 C   0  0  0  0  0  0  0  0  0  0  0  0
   13.8730   38.7990   11.5580 C   0  0  0  0  0  0  0  0  0  0  0  0
   12.9440   39.2820   10.6540 C   0  0  0  0  0  0  0  0  0  0  0  0
   12.9620   39.2500    9.1580 C   0  0  0  0  0  0  0  0  0  0  0  0
   11.9510   38.8320    8.5540 O   0  0  0  0  0  0  0  0  0  0  0  0
   13.9770   39.6160    8.5260 O   0  0  0  0  0  1  0  0  0  0  0  0
   11.8870   39.8870   11.3680 N   0  0  0  0  0  0  0  0  0  0  0  0
   10.6780   40.5240   10.8390 C   0  0  0  0  0  0  0  0  0  0  0  0
    9.6680   39.5610   10.2010 C   0  0  0  0  0  0  0  0  0  0  0  0
    9.0130   39.8940    8.9890 C   0  0  0  0  0  0  0  0  0  0  0  0
    8.0870   39.0140    8.4010 C   0  0  0  0  0  0  0  0  0  0  0  0
    7.7960   37.7860    9.0170 C   0  0  0  0  0  0  0  0  0  0  0  0
    8.4320   37.4340   10.2220 C   0  0  0  0  0  0  0  0  0  0  0  0
    8.1280   36.1970   10.8270 C   0  0  0  0  0  0  0  0  0  0  0  0
    8.7500   35.8240   12.0310 C   0  0  0  0  0  0  0  0  0  0  0  0
    9.6810   36.6890   12.6340 C   0  0  0  0  0  0  0  0  0  0  0  0
    9.9880   37.9260   12.0360 C   0  0  0  0  0  0  0  0  0  0  0  0
    9.3710   38.3170   10.8230 C   0  0  0  0  0  0  0  0  0  0  0  0
   12.1410   39.7900   12.7300 C   0  0  0  0  0  0  0  0  0  0  0  0
   11.4180   40.2390   13.8550 C   0  0  0  0  0  0  0  0  0  0  0  0
   11.9110   39.9950   15.1470 C   0  0  0  0  0  0  0  0  0  0  0  0
   13.1220   39.3010   15.3110 C   0  0  0  0  0  0  0  0  0  0  0  0
   13.6000   39.0580   16.5550 F   0  0  0  0  0  0  0  0  0  0  0  0
   13.8400   38.8580   14.1830 C   0  0  0  0  0  0  0  0  0  0  0  0
   13.3720   39.0960   12.8680 C   0  0  0  0  0  0  0  0  0  0  0  0
   17.8126   39.3157   15.6583 H   0  0  0  0  0  0  0  0  0  0  0  0
   18.8098   39.2579   14.1654 H   0  0  0  0  0  0  0  0  0  0  0  0
   17.2428   40.1362   14.1654 H   0  0  0  0  0  0  0  0  0  0  0  0
   17.3832   37.1485   14.7734 H   0  0  0  0  0  0  0  0  0  0  0  0
   15.9776   38.1193   14.2234 H   0  0  0  0  0  0  0  0  0  0  0  0
   15.9483   41.1182   11.6643 H   0  0  0  0  0  0  0  0  0  0  0  0
   16.9308   40.7386   10.2093 H   0  0  0  0  0  0  0  0  0  0  0  0
   15.1638   40.4153   10.2093 H   0  0  0  0  0  0  0  0  0  0  0  0
   15.1659   37.6756   10.2824 H   0  0  0  0  0  0  0  0  0  0  0  0
   15.3562   37.3657   12.0630 H   0  0  0  0  0  0  0  0  0  0  0  0
   10.1764   41.0462   11.6671 H   0  0  0  0  0  0  0  0  0  0  0  0
   11.0103   41.1993   10.0368 H   0  0  0  0  0  0  0  0  0  0  0  0
    9.2323   40.8551    8.5010 H   0  0  0  0  0  0  0  0  0  0  0  0
    7.5905   39.2876    7.4583 H   0  0  0  0  0  0  0  0  0  0  0  0
    7.0704   37.0988    8.5573 H   0  0  0  0  0  0  0  0  0  0  0  0
    7.4005   35.5207   10.3544 H   0  0  0  0  0  0  0  0  0  0  0  0
    8.5095   34.8586   12.5003 H   0  0  0  0  0  0  0  0  0  0  0  0
   10.1704   36.3982   13.5752 H   0  0  0  0  0  0  0  0  0  0  0  0
   10.7156   38.5965   12.5166 H   0  0  0  0  0  0  0  0  0  0  0  0
   10.4694   40.7795   13.7204 H   0  0  0  0  0  0  0  0  0  0  0  0
   11.3517   40.3456   16.0270 H   0  0  0  0  0  0  0  0  0  0  0  0
   14.7857   38.3149   14.3270 H   0  0  0  0  0  0  0  0  0  0  0  0
  1  2  1  0
  2  3  1  0
  3  4  1  0
  4  5  2  0
  4  6  1  0
  6  7  1  0
  6  8  1  0
  8  9  1  0
  9 10  2  0
 10 11  1  0
 11 12  2  0
 11 13  1  0
 10 14  1  0
 14 15  1  0
 15 16  1  0
 16 17  2  0
 17 18  1  0
 18 19  2  0
 19 20  1  0
 20 21  2  0
 21 22  1  0
 22 23  2  0
 23 24  1  0
 24 25  2  0
 14 26  1  0
 26 27  2  0
 27 28  1  0
 28 29  2  0
 29 30  1  0
 29 31  1  0
 31 32  2  0
 32  9  1  0
 25 16  1  0
 32 26  1  0
 25 20  1  0
  1 33  1  0
  1 34  1  0
  1 35  1  0
  2 36  1  0
  2 37  1  0
  7 38  1  0
  7 39  1  0
  7 40  1  0
  8 41  1  0
  8 42  1  0
 15 43  1  0
 15 44  1  0
 17 45  1  0
 18 46  1  0
 19 47  1  0
 21 48  1  0
 22 49  1  0
 23 50  1  0
 24 51  1  0
 27 52  1  0
 28 53  1  0
 31 54  1  0
M  CHG  1  13  -1
M  END
>  <meeko>  (20) 
{"free_energy": -4.98, "intermolecular_energy": -7.37, "internal_energy": -2.0, "cluster_size": 292, "cluster_id": 10, "rank_in_cluster": 269}

$$$$

     RDKit          3D

 54 57  0  0  0  0  0  0  0  0999 V2000
   14.3540   36.8870   17.6330 C   0  0  0  0  0  0  0  0  0  0  0  0
   13.5060   38.1320   17.3570 C   0  0  0  0  0  0  0  0  0  0  0  0
   12.1380   37.7630   17.3040 O   0  0  0  0  0  0  0  0  0  0  0  0
   11.3120   38.0760   18.3260 C   0  0  0  0  0  0  0  0  0  0  0  0
   11.1990   37.3880   19.3410 O   0  0  0  0  0  0  0  0  0  0  0  0
   10.6330   39.2720   18.0590 N   0  0  0  0  0  0  0  0  0  0  0  0
   10.8740   40.4950   18.8330 C   0  0  0  0  0  0  0  0  0  0  0  0
    9.6170   39.3520   17.0020 C   0  0  0  0  0  0  0  0  0  0  0  0
    9.6330   38.1400   16.1000 C   0  0  0  0  0  0  0  0  0  0  0  0
   10.2290   37.9900   14.8600 C   0  0  0  0  0  0  0  0  0  0  0  0
   11.0510   38.9610   14.0740 C   0  0  0  0  0  0  0  0  0  0  0  0
   10.4700   39.7520   13.3000 O   0  0  0  0  0  0  0  0  0  0  0  0
   12.2980   38.9680   14.1750 O   0  0  0  0  0  1  0  0  0  0  0  0
    9.9260   36.7040   14.3630 N   0  0  0  0  0  0  0  0  0  0  0  0
   10.3450   36.0960   13.0970 C   0  0  0  0  0  0  0  0  0  0  0  0
    9.8520   36.8210   11.8380 C   0  0  0  0  0  0  0  0  0  0  0  0
    8.5070   36.6990   11.4100 C   0  0  0  0  0  0  0  0  0  0  0  0
    8.0510   37.3620   10.2570 C   0  0  0  0  0  0  0  0  0  0  0  0
    8.9330   38.1580    9.5100 C   0  0  0  0  0  0  0  0  0  0  0  0
   10.2750   38.2940    9.9140 C   0  0  0  0  0  0  0  0  0  0  0  0
   11.1470   39.0980    9.1500 C   0  0  0  0  0  0  0  0  0  0  0  0
   12.4920   39.2470    9.5350 C   0  0  0  0  0  0  0  0  0  0  0  0
   12.9670   38.5930   10.6850 C   0  0  0  0  0  0  0  0  0  0  0  0
   12.1010   37.7890   11.4510 C   0  0  0  0  0  0  0  0  0  0  0  0
   10.7440   37.6280   11.0790 C   0  0  0  0  0  0  0  0  0  0  0  0
    9.1350   36.0310   15.2850 C   0  0  0  0  0  0  0  0  0  0  0  0
    8.5590   34.7440   15.2670 C   0  0  0  0  0  0  0  0  0  0  0  0
    7.7950   34.3030   16.3600 C   0  0  0  0  0  0  0  0  0  0  0  0
    7.6120   35.1490   17.4680 C   0  0  0  0  0  0  0  0  0  0  0  0
    6.8800   34.7280   18.5270 F   0  0  0  0  0  0  0  0  0  0  0  0
    8.1870   36.4340   17.4780 C   0  0  0  0  0  0  0  0  0  0  0  0
    8.9560   36.9090   16.3880 C   0  0  0  0  0  0  0  0  0  0  0  0
   14.4518   36.7434   18.7192 H   0  0  0  0  0  0  0  0  0  0  0  0
   13.8673   36.0061   17.1890 H   0  0  0  0  0  0  0  0  0  0  0  0
   15.3520   37.0173   17.1890 H   0  0  0  0  0  0  0  0  0  0  0  0
   13.6579   38.8663   18.1619 H   0  0  0  0  0  0  0  0  0  0  0  0
   13.8057   38.5774   16.3969 H   0  0  0  0  0  0  0  0  0  0  0  0
   10.8285   40.2639   19.9075 H   0  0  0  0  0  0  0  0  0  0  0  0
   11.8683   40.8954   18.5859 H   0  0  0  0  0  0  0  0  0  0  0  0
   10.1059   41.2426   18.5859 H   0  0  0  0  0  0  0  0  0  0  0  0
    8.6248   39.4318   17.4701 H   0  0  0  0  0  0  0  0  0  0  0  0
    9.8415   40.2344   16.3848 H   0  0  0  0  0  0  0  0  0  0  0  0
   11.4446   36.0794   13.0733 H   0  0  0  0  0  0  0  0  0  0  0  0
    9.8938   35.0931   13.0721 H   0  0  0  0  0  0  0  0  0  0  0  0
    7.8089   36.0761   11.9885 H   0  0  0  0  0  0  0  0  0  0  0  0
    7.0028   37.2568    9.9404 H   0  0  0  0  0  0  0  0  0  0  0  0
    8.5756   38.6762    8.6079 H   0  0  0  0  0  0  0  0  0  0  0  0
   10.7742   39.6099    8.2506 H   0  0  0  0  0  0  0  0  0  0  0  0
   13.1703   39.8738    8.9375 H   0  0  0  0  0  0  0  0  0  0  0  0
   14.0182   38.7096   10.9875 H   0  0  0  0  0  0  0  0  0  0  0  0
   12.4829   37.2803   12.3484 H   0  0  0  0  0  0  0  0  0  0  0  0
    8.7078   34.0862   14.3980 H   0  0  0  0  0  0  0  0  0  0  0  0
    7.3420   33.3006   16.3492 H   0  0  0  0  0  0  0  0  0  0  0  0
    8.0354   37.0838   18.3525 H   0  0  0  0  0  0  0  0  0  0  0  0
  1  2  1  0
  2  3  1  0
  3  4  1  0
  4  5  2  0
  4  6  1  0
  6  7  1  0
  6  8  1  0
  8  9  1  0
  9 10  2  0
 10 11  1  0
 11 12  2  0
 11 13  1  0
 10 14  1  0
 14 15  1  0
 15 16  1  0
 16 17  2  0
 17 18  1  0
 18 19  2  0
 19 20  1  0
 20 21  2  0
 21 22  1  0
 22 23  2  0
 23 24  1  0
 24 25  2  0
 14 26  1  0
 26 27  2  0
 27 28  1  0
 28 29  2  0
 29 30  1  0
 29 31  1  0
 31 32  2  0
 32  9  1  0
 25 16  1  0
 32 26  1  0
 25 20  1  0
  1 33  1  0
  1 34  1  0
  1 35  1  0
  2 36  1  0
  2 37  1  0
  7 38  1  0
  7 39  1  0
  7 40  1  0
  8 41  1  0
  8 42  1  0
 15 43  1  0
 15 44  1  0
 17 45  1  0
 18 46  1  0
 19 47  1  0
 21 48  1  0
 22 49  1  0
 23 50  1  0
 24 51  1  0
 27 52  1  0
 28 53  1  0
 31 54  1  0
M  CHG  1  13  -1
M  END
>  <meeko>  (21) 
{"free_energy": -4.82, "intermolecular_energy": -7.21, "internal_energy": -2.04, "cluster_size": 8, "cluster_id": 121, "rank_in_cluster": 3}

$$$$

     RDKit          3D

 54 57  0  0  0  0  0  0  0  0999 V2000
    7.8370   35.0800    8.0180 C   0  0  0  0  0  0  0  0  0  0  0  0
    7.2800   36.3380    8.6910 C   0  0  0  0  0  0  0  0  0  0  0  0
    8.2540   37.3670    8.6350 O   0  0  0  0  0  0  0  0  0  0  0  0
    8.3910   38.2250    9.6690 C   0  0  0  0  0  0  0  0  0  0  0  0
    7.4370   38.7670   10.2310 O   0  0  0  0  0  0  0  0  0  0  0  0
    9.7430   38.3910    9.9940 N   0  0  0  0  0  0  0  0  0  0  0  0
   10.7270   37.3190    9.8100 C   0  0  0  0  0  0  0  0  0  0  0  0
   10.2400   39.6490   10.5670 C   0  0  0  0  0  0  0  0  0  0  0  0
   10.0980   39.6890   12.0710 C   0  0  0  0  0  0  0  0  0  0  0  0
    9.8730   38.6420   12.9480 C   0  0  0  0  0  0  0  0  0  0  0  0
    9.7430   37.1780   12.6720 C   0  0  0  0  0  0  0  0  0  0  0  0
    8.6020   36.7020   12.4820 O   0  0  0  0  0  0  0  0  0  0  0  0
   10.7530   36.4410   12.6510 O   0  0  0  0  0  1  0  0  0  0  0  0
    9.7470   39.1630   14.2530 N   0  0  0  0  0  0  0  0  0  0  0  0
    9.5140   38.4360   15.5050 C   0  0  0  0  0  0  0  0  0  0  0  0
   10.4960   37.2890   15.7770 C   0  0  0  0  0  0  0  0  0  0  0  0
   11.8630   37.5510   16.0450 C   0  0  0  0  0  0  0  0  0  0  0  0
   12.7660   36.5040   16.2950 C   0  0  0  0  0  0  0  0  0  0  0  0
   12.3190   35.1730   16.2790 C   0  0  0  0  0  0  0  0  0  0  0  0
   10.9670   34.8860   16.0130 C   0  0  0  0  0  0  0  0  0  0  0  0
   10.5360   33.5430   16.0000 C   0  0  0  0  0  0  0  0  0  0  0  0
    9.1890   33.2340   15.7370 C   0  0  0  0  0  0  0  0  0  0  0  0
    8.2700   34.2680   15.4850 C   0  0  0  0  0  0  0  0  0  0  0  0
    8.6950   35.6100   15.4960 C   0  0  0  0  0  0  0  0  0  0  0  0
   10.0470   35.9400   15.7600 C   0  0  0  0  0  0  0  0  0  0  0  0
    9.8910   40.5440   14.2110 C   0  0  0  0  0  0  0  0  0  0  0  0
    9.8370   41.5250   15.2220 C   0  0  0  0  0  0  0  0  0  0  0  0
   10.0290   42.8780   14.8960 C   0  0  0  0  0  0  0  0  0  0  0  0
   10.2770   43.2450   13.5620 C   0  0  0  0  0  0  0  0  0  0  0  0
   10.4670   44.5470   13.2420 F   0  0  0  0  0  0  0  0  0  0  0  0
   10.3260   42.2590   12.5570 C   0  0  0  0  0  0  0  0  0  0  0  0
   10.1290   40.8890   12.8540 C   0  0  0  0  0  0  0  0  0  0  0  0
    8.1548   34.3621    8.7885 H   0  0  0  0  0  0  0  0  0  0  0  0
    7.0569   34.6236    7.3911 H   0  0  0  0  0  0  0  0  0  0  0  0
    8.6993   35.3508    7.3911 H   0  0  0  0  0  0  0  0  0  0  0  0
    6.3700   36.6639    8.1659 H   0  0  0  0  0  0  0  0  0  0  0  0
    7.0349   36.1179    9.7405 H   0  0  0  0  0  0  0  0  0  0  0  0
   11.0610   36.9552   10.7929 H   0  0  0  0  0  0  0  0  0  0  0  0
   10.2673   36.4916    9.2496 H   0  0  0  0  0  0  0  0  0  0  0  0
   11.5907   37.7063    9.2496 H   0  0  0  0  0  0  0  0  0  0  0  0
   11.3036   39.7596   10.3089 H   0  0  0  0  0  0  0  0  0  0  0  0
    9.6383   40.4700   10.1499 H   0  0  0  0  0  0  0  0  0  0  0  0
    9.5876   39.1533   16.3357 H   0  0  0  0  0  0  0  0  0  0  0  0
    8.5189   37.9760   15.4146 H   0  0  0  0  0  0  0  0  0  0  0  0
   12.2226   38.5905   16.0575 H   0  0  0  0  0  0  0  0  0  0  0  0
   13.8229   36.7269   16.5032 H   0  0  0  0  0  0  0  0  0  0  0  0
   13.0263   34.3536   16.4746 H   0  0  0  0  0  0  0  0  0  0  0  0
   11.2556   32.7345   16.1962 H   0  0  0  0  0  0  0  0  0  0  0  0
    8.8554   32.1858   15.7285 H   0  0  0  0  0  0  0  0  0  0  0  0
    7.2166   34.0277   15.2788 H   0  0  0  0  0  0  0  0  0  0  0  0
    7.9686   36.4118   15.2972 H   0  0  0  0  0  0  0  0  0  0  0  0
    9.6448   41.2315   16.2646 H   0  0  0  0  0  0  0  0  0  0  0  0
    9.9854   43.6469   15.6814 H   0  0  0  0  0  0  0  0  0  0  0  0
   10.5219   42.5606   11.5175 H   0  0  0  0  0  0  0  0  0  0  0  0
  1  2  1  0
  2  3  1  0
  3  4  1  0
  4  5  2  0
  4  6  1  0
  6  7  1  0
  6  8  1  0
  8  9  1  0
  9 10  2  0
 10 11  1  0
 11 12  2  0
 11 13  1  0
 10 14  1  0
 14 15  1  0
 15 16  1  0
 16 17  2  0
 17 18  1  0
 18 19  2  0
 19 20  1  0
 20 21  2  0
 21 22  1  0
 22 23  2  0
 23 24  1  0
 24 25  2  0
 14 26  1  0
 26 27  2  0
 27 28  1  0
 28 29  2  0
 29 30  1  0
 29 31  1  0
 31 32  2  0
 32  9  1  0
 25 16  1  0
 32 26  1  0
 25 20  1  0
  1 33  1  0
  1 34  1  0
  1 35  1  0
  2 36  1  0
  2 37  1  0
  7 38  1  0
  7 39  1  0
  7 40  1  0
  8 41  1  0
  8 42  1  0
 15 43  1  0
 15 44  1  0
 17 45  1  0
 18 46  1  0
 19 47  1  0
 21 48  1  0
 22 49  1  0
 23 50  1  0
 24 51  1  0
 27 52  1  0
 28 53  1  0
 31 54  1  0
M  CHG  1  13  -1
M  END
>  <meeko>  (22) 
{"free_energy": -5.45, "intermolecular_energy": -7.83, "internal_energy": -1.87, "cluster_size": 48, "cluster_id": 59, "rank_in_cluster": 15}

$$$$

     RDKit          3D

 54 57  0  0  0  0  0  0  0  0999 V2000
    6.2950   38.3320    5.6970 C   0  0  0  0  0  0  0  0  0  0  0  0
    6.9600   38.2960    7.0760 C   0  0  0  0  0  0  0  0  0  0  0  0
    7.7950   37.1530    7.1620 O   0  0  0  0  0  0  0  0  0  0  0  0
    7.4420   36.1160    7.9510 C   0  0  0  0  0  0  0  0  0  0  0  0
    6.6920   35.2090    7.5840 O   0  0  0  0  0  0  0  0  0  0  0  0
    8.0490   36.2260    9.2080 N   0  0  0  0  0  0  0  0  0  0  0  0
    8.8310   35.1330    9.7960 C   0  0  0  0  0  0  0  0  0  0  0  0
    7.9070   37.4430   10.0190 C   0  0  0  0  0  0  0  0  0  0  0  0
    9.1000   37.6770   10.9150 C   0  0  0  0  0  0  0  0  0  0  0  0
   10.2260   38.4440   10.6760 C   0  0  0  0  0  0  0  0  0  0  0  0
   10.5720   39.2860    9.4890 C   0  0  0  0  0  0  0  0  0  0  0  0
   11.5060   38.9190    8.7430 O   0  0  0  0  0  0  0  0  0  0  0  0
    9.9520   40.3470    9.2580 O   0  0  0  0  0  1  0  0  0  0  0  0
   11.1060   38.3140   11.7720 N   0  0  0  0  0  0  0  0  0  0  0  0
   12.4130   38.9470   11.9710 C   0  0  0  0  0  0  0  0  0  0  0  0
   12.4380   40.4630   11.7320 C   0  0  0  0  0  0  0  0  0  0  0  0
   13.4180   41.0500   10.8930 C   0  0  0  0  0  0  0  0  0  0  0  0
   13.4450   42.4370   10.6710 C   0  0  0  0  0  0  0  0  0  0  0  0
   12.4930   43.2650   11.2880 C   0  0  0  0  0  0  0  0  0  0  0  0
   11.5100   42.7070   12.1270 C   0  0  0  0  0  0  0  0  0  0  0  0
   10.5620   43.5540   12.7380 C   0  0  0  0  0  0  0  0  0  0  0  0
    9.5720   43.0180   13.5810 C   0  0  0  0  0  0  0  0  0  0  0  0
    9.5280   41.6320   13.8140 C   0  0  0  0  0  0  0  0  0  0  0  0
   10.4720   40.7810   13.2080 C   0  0  0  0  0  0  0  0  0  0  0  0
   11.4760   41.3040   12.3550 C   0  0  0  0  0  0  0  0  0  0  0  0
   10.5420   37.4620   12.7130 C   0  0  0  0  0  0  0  0  0  0  0  0
   11.0100   36.9970   13.9590 C   0  0  0  0  0  0  0  0  0  0  0  0
   10.2150   36.1300   14.7270 C   0  0  0  0  0  0  0  0  0  0  0  0
    8.9550   35.7320   14.2470 C   0  0  0  0  0  0  0  0  0  0  0  0
    8.1820   34.9000   14.9840 F   0  0  0  0  0  0  0  0  0  0  0  0
    8.4960   36.1980   13.0000 C   0  0  0  0  0  0  0  0  0  0  0  0
    9.2780   37.0670   12.2000 C   0  0  0  0  0  0  0  0  0  0  0  0
    5.2033   38.3911    5.8178 H   0  0  0  0  0  0  0  0  0  0  0  0
    6.6506   39.2122    5.1413 H   0  0  0  0  0  0  0  0  0  0  0  0
    6.5535   37.4185    5.1413 H   0  0  0  0  0  0  0  0  0  0  0  0
    7.5642   39.2043    7.2168 H   0  0  0  0  0  0  0  0  0  0  0  0
    6.1873   38.2485    7.8575 H   0  0  0  0  0  0  0  0  0  0  0  0
    8.7846   35.1979   10.8931 H   0  0  0  0  0  0  0  0  0  0  0  0
    8.4170   34.1682    9.4679 H   0  0  0  0  0  0  0  0  0  0  0  0
    9.8779   35.2134    9.4679 H   0  0  0  0  0  0  0  0  0  0  0  0
    7.7956   38.3058    9.3458 H   0  0  0  0  0  0  0  0  0  0  0  0
    7.0229   37.3180   10.6615 H   0  0  0  0  0  0  0  0  0  0  0  0
   12.7299   38.7589   13.0074 H   0  0  0  0  0  0  0  0  0  0  0  0
   13.0878   38.5049   11.2233 H   0  0  0  0  0  0  0  0  0  0  0  0
   14.1693   40.4095   10.4080 H   0  0  0  0  0  0  0  0  0  0  0  0
   14.2114   42.8743   10.0142 H   0  0  0  0  0  0  0  0  0  0  0  0
   12.5156   44.3511   11.1154 H   0  0  0  0  0  0  0  0  0  0  0  0
   10.5971   44.6380   12.5545 H   0  0  0  0  0  0  0  0  0  0  0  0
    8.8343   43.6810   14.0566 H   0  0  0  0  0  0  0  0  0  0  0  0
    8.7534   41.2111   14.4720 H   0  0  0  0  0  0  0  0  0  0  0  0
   10.4299   39.6985   13.3986 H   0  0  0  0  0  0  0  0  0  0  0  0
   11.9965   37.3127   14.3294 H   0  0  0  0  0  0  0  0  0  0  0  0
   10.5767   35.7643   15.6993 H   0  0  0  0  0  0  0  0  0  0  0  0
    7.5070   35.8798   12.6386 H   0  0  0  0  0  0  0  0  0  0  0  0
  1  2  1  0
  2  3  1  0
  3  4  1  0
  4  5  2  0
  4  6  1  0
  6  7  1  0
  6  8  1  0
  8  9  1  0
  9 10  2  0
 10 11  1  0
 11 12  2  0
 11 13  1  0
 10 14  1  0
 14 15  1  0
 15 16  1  0
 16 17  2  0
 17 18  1  0
 18 19  2  0
 19 20  1  0
 20 21  2  0
 21 22  1  0
 22 23  2  0
 23 24  1  0
 24 25  2  0
 14 26  1  0
 26 27  2  0
 27 28  1  0
 28 29  2  0
 29 30  1  0
 29 31  1  0
 31 32  2  0
 32  9  1  0
 25 16  1  0
 32 26  1  0
 25 20  1  0
  1 33  1  0
  1 34  1  0
  1 35  1  0
  2 36  1  0
  2 37  1  0
  7 38  1  0
  7 39  1  0
  7 40  1  0
  8 41  1  0
  8 42  1  0
 15 43  1  0
 15 44  1  0
 17 45  1  0
 18 46  1  0
 19 47  1  0
 21 48  1  0
 22 49  1  0
 23 50  1  0
 24 51  1  0
 27 52  1  0
 28 53  1  0
 31 54  1  0
M  CHG  1  13  -1
M  END
>  <meeko>  (23) 
{"free_energy": -5.68, "intermolecular_energy": -8.06, "internal_energy": -1.96, "cluster_size": 124, "cluster_id": 20, "rank_in_cluster": 74}

$$$$

     RDKit          3D

 54 57  0  0  0  0  0  0  0  0999 V2000
   13.8940   44.2550   15.1500 C   0  0  0  0  0  0  0  0  0  0  0  0
   14.5120   43.2760   14.1480 C   0  0  0  0  0  0  0  0  0  0  0  0
   14.2880   43.7530   12.8310 O   0  0  0  0  0  0  0  0  0  0  0  0
   14.3660   42.9050   11.7830 C   0  0  0  0  0  0  0  0  0  0  0  0
   15.3280   42.8630   11.0140 O   0  0  0  0  0  0  0  0  0  0  0  0
   13.2200   42.1020   11.7140 N   0  0  0  0  0  0  0  0  0  0  0  0
   11.8790   42.6320   11.9890 C   0  0  0  0  0  0  0  0  0  0  0  0
   13.3090   40.6730   11.3890 C   0  0  0  0  0  0  0  0  0  0  0  0
   11.9830   39.9660   11.5480 C   0  0  0  0  0  0  0  0  0  0  0  0
   10.8500   40.0620   10.7600 C   0  0  0  0  0  0  0  0  0  0  0  0
   10.6190   40.8580    9.5140 C   0  0  0  0  0  0  0  0  0  0  0  0
   11.6060   41.3500    8.9250 O   0  0  0  0  0  0  0  0  0  0  0  0
    9.4610   41.0430    9.0810 O   0  0  0  0  0  1  0  0  0  0  0  0
    9.8320   39.2680   11.3290 N   0  0  0  0  0  0  0  0  0  0  0  0
    8.4660   39.0510   10.8420 C   0  0  0  0  0  0  0  0  0  0  0  0
    8.2620   37.7510   10.0530 C   0  0  0  0  0  0  0  0  0  0  0  0
    8.5570   36.4940   10.6360 C   0  0  0  0  0  0  0  0  0  0  0  0
    8.3710   35.3010    9.9160 C   0  0  0  0  0  0  0  0  0  0  0  0
    7.8880   35.3430    8.5990 C   0  0  0  0  0  0  0  0  0  0  0  0
    7.5880   36.5800    7.9970 C   0  0  0  0  0  0  0  0  0  0  0  0
    7.1040   36.6040    6.6730 C   0  0  0  0  0  0  0  0  0  0  0  0
    6.7990   37.8280    6.0510 C   0  0  0  0  0  0  0  0  0  0  0  0
    6.9770   39.0320    6.7540 C   0  0  0  0  0  0  0  0  0  0  0  0
    7.4610   39.0160    8.0770 C   0  0  0  0  0  0  0  0  0  0  0  0
    7.7730   37.7910    8.7180 C   0  0  0  0  0  0  0  0  0  0  0  0
   10.3140   38.6630   12.4830 C   0  0  0  0  0  0  0  0  0  0  0  0
    9.7050   37.7980   13.4150 C   0  0  0  0  0  0  0  0  0  0  0  0
   10.4420   37.3180   14.5100 C   0  0  0  0  0  0  0  0  0  0  0  0
   11.7850   37.7030   14.6690 C   0  0  0  0  0  0  0  0  0  0  0  0
   12.5010   37.2400   15.7210 F   0  0  0  0  0  0  0  0  0  0  0  0
   12.3850   38.5700   13.7360 C   0  0  0  0  0  0  0  0  0  0  0  0
   11.6660   39.0760   12.6260 C   0  0  0  0  0  0  0  0  0  0  0  0
   14.1083   43.9155   16.1741 H   0  0  0  0  0  0  0  0  0  0  0  0
   14.3243   45.2558   14.9979 H   0  0  0  0  0  0  0  0  0  0  0  0
   12.8054   44.2970   14.9979 H   0  0  0  0  0  0  0  0  0  0  0  0
   15.5937   43.1959   14.3313 H   0  0  0  0  0  0  0  0  0  0  0  0
   14.0491   42.2851   14.2659 H   0  0  0  0  0  0  0  0  0  0  0  0
   11.7247   42.6930   13.0764 H   0  0  0  0  0  0  0  0  0  0  0  0
   11.7838   43.6354   11.5483 H   0  0  0  0  0  0  0  0  0  0  0  0
   11.1236   41.9648   11.5483 H   0  0  0  0  0  0  0  0  0  0  0  0
   13.6437   40.5673   10.3465 H   0  0  0  0  0  0  0  0  0  0  0  0
   14.0224   40.2123   12.0881 H   0  0  0  0  0  0  0  0  0  0  0  0
    7.7919   39.0330   11.7111 H   0  0  0  0  0  0  0  0  0  0  0  0
    8.2525   39.8734   10.1434 H   0  0  0  0  0  0  0  0  0  0  0  0
    8.9372   36.4508   11.6673 H   0  0  0  0  0  0  0  0  0  0  0  0
    8.6042   34.3338   10.3853 H   0  0  0  0  0  0  0  0  0  0  0  0
    7.7437   34.4088    8.0365 H   0  0  0  0  0  0  0  0  0  0  0  0
    6.9643   35.6611    6.1240 H   0  0  0  0  0  0  0  0  0  0  0  0
    6.4223   37.8430    5.0176 H   0  0  0  0  0  0  0  0  0  0  0  0
    6.7376   39.9901    6.2695 H   0  0  0  0  0  0  0  0  0  0  0  0
    7.5982   39.9639    8.6180 H   0  0  0  0  0  0  0  0  0  0  0  0
    8.6543   37.4995   13.2848 H   0  0  0  0  0  0  0  0  0  0  0  0
    9.9706   36.6437   15.2401 H   0  0  0  0  0  0  0  0  0  0  0  0
   13.4370   38.8611   13.8725 H   0  0  0  0  0  0  0  0  0  0  0  0
  1  2  1  0
  2  3  1  0
  3  4  1  0
  4  5  2  0
  4  6  1  0
  6  7  1  0
  6  8  1  0
  8  9  1  0
  9 10  2  0
 10 11  1  0
 11 12  2  0
 11 13  1  0
 10 14  1  0
 14 15  1  0
 15 16  1  0
 16 17  2  0
 17 18  1  0
 18 19  2  0
 19 20  1  0
 20 21  2  0
 21 22  1  0
 22 23  2  0
 23 24  1  0
 24 25  2  0
 14 26  1  0
 26 27  2  0
 27 28  1  0
 28 29  2  0
 29 30  1  0
 29 31  1  0
 31 32  2  0
 32  9  1  0
 25 16  1  0
 32 26  1  0
 25 20  1  0
  1 33  1  0
  1 34  1  0
  1 35  1  0
  2 36  1  0
  2 37  1  0
  7 38  1  0
  7 39  1  0
  7 40  1  0
  8 41  1  0
  8 42  1  0
 15 43  1  0
 15 44  1  0
 17 45  1  0
 18 46  1  0
 19 47  1  0
 21 48  1  0
 22 49  1  0
 23 50  1  0
 24 51  1  0
 27 52  1  0
 28 53  1  0
 31 54  1  0
M  CHG  1  13  -1
M  END
>  <meeko>  (24) 
{"free_energy": -5.31, "intermolecular_energy": -7.69, "internal_energy": -1.57, "cluster_size": 42, "cluster_id": 46, "rank_in_cluster": 24}

$$$$

     RDKit          3D

 54 57  0  0  0  0  0  0  0  0999 V2000
   14.5140   41.5740   16.6760 C   0  0  0  0  0  0  0  0  0  0  0  0
   15.2580   41.5190   15.3390 C   0  0  0  0  0  0  0  0  0  0  0  0
   14.5140   40.7310   14.4240 O   0  0  0  0  0  0  0  0  0  0  0  0
   13.4380   41.2550   13.7990 C   0  0  0  0  0  0  0  0  0  0  0  0
   13.5180   41.9920   12.8140 O   0  0  0  0  0  0  0  0  0  0  0  0
   12.2560   40.8370   14.4230 N   0  0  0  0  0  0  0  0  0  0  0  0
   11.0780   41.7060   14.5260 C   0  0  0  0  0  0  0  0  0  0  0  0
   12.1470   39.5060   15.0350 C   0  0  0  0  0  0  0  0  0  0  0  0
   11.4850   38.5060   14.1170 C   0  0  0  0  0  0  0  0  0  0  0  0
   11.6420   38.3460   12.7520 C   0  0  0  0  0  0  0  0  0  0  0  0
   12.5300   39.0860   11.8010 C   0  0  0  0  0  0  0  0  0  0  0  0
   12.0580   40.0580   11.1720 O   0  0  0  0  0  0  0  0  0  0  0  0
   13.7140   38.7260   11.6250 O   0  0  0  0  0  1  0  0  0  0  0  0
   10.7720   37.3260   12.3100 N   0  0  0  0  0  0  0  0  0  0  0  0
   10.5970   36.8040   10.9520 C   0  0  0  0  0  0  0  0  0  0  0  0
    9.6010   37.5850   10.0840 C   0  0  0  0  0  0  0  0  0  0  0  0
    9.5210   38.9980   10.1640 C   0  0  0  0  0  0  0  0  0  0  0  0
    8.6110   39.7170    9.3710 C   0  0  0  0  0  0  0  0  0  0  0  0
    7.7620   39.0360    8.4840 C   0  0  0  0  0  0  0  0  0  0  0  0
    7.8210   37.6330    8.3870 C   0  0  0  0  0  0  0  0  0  0  0  0
    6.9610   36.9660    7.4910 C   0  0  0  0  0  0  0  0  0  0  0  0
    7.0020   35.5650    7.3780 C   0  0  0  0  0  0  0  0  0  0  0  0
    7.9070   34.8270    8.1630 C   0  0  0  0  0  0  0  0  0  0  0  0
    8.7680   35.4870    9.0600 C   0  0  0  0  0  0  0  0  0  0  0  0
    8.7400   36.8980    9.1860 C   0  0  0  0  0  0  0  0  0  0  0  0
   10.0580   36.8330   13.3940 C   0  0  0  0  0  0  0  0  0  0  0  0
    9.0670   35.8350   13.4910 C   0  0  0  0  0  0  0  0  0  0  0  0
    8.5050   35.5230   14.7410 C   0  0  0  0  0  0  0  0  0  0  0  0
    8.9370   36.2090   15.8890 C   0  0  0  0  0  0  0  0  0  0  0  0
    8.4030   35.9110   17.0970 F   0  0  0  0  0  0  0  0  0  0  0  0
    9.9250   37.2080   15.7840 C   0  0  0  0  0  0  0  0  0  0  0  0
   10.5040   37.5490   14.5380 C   0  0  0  0  0  0  0  0  0  0  0  0
   15.2390   41.5204   17.5015 H   0  0  0  0  0  0  0  0  0  0  0  0
   13.9504   42.5163   16.7435 H   0  0  0  0  0  0  0  0  0  0  0  0
   13.8180   40.7249   16.7435 H   0  0  0  0  0  0  0  0  0  0  0  0
   15.3724   42.5374   14.9393 H   0  0  0  0  0  0  0  0  0  0  0  0
   16.2527   41.0733   15.4873 H   0  0  0  0  0  0  0  0  0  0  0  0
   10.8422   41.8799   15.5863 H   0  0  0  0  0  0  0  0  0  0  0  0
   11.2875   42.6675   14.0345 H   0  0  0  0  0  0  0  0  0  0  0  0
   10.2212   41.2220   14.0345 H   0  0  0  0  0  0  0  0  0  0  0  0
   13.1569   39.1459   15.2811 H   0  0  0  0  0  0  0  0  0  0  0  0
   11.5235   39.5999   15.9363 H   0  0  0  0  0  0  0  0  0  0  0  0
   11.5756   36.8222   10.4500 H   0  0  0  0  0  0  0  0  0  0  0  0
   10.1832   35.7907   11.0614 H   0  0  0  0  0  0  0  0  0  0  0  0
   10.1813   39.5396   10.8573 H   0  0  0  0  0  0  0  0  0  0  0  0
    8.5637   40.8135    9.4451 H   0  0  0  0  0  0  0  0  0  0  0  0
    7.0496   39.5998    7.8639 H   0  0  0  0  0  0  0  0  0  0  0  0
    6.2545   37.5442    6.8774 H   0  0  0  0  0  0  0  0  0  0  0  0
    6.3289   35.0478    6.6784 H   0  0  0  0  0  0  0  0  0  0  0  0
    7.9418   33.7310    8.0755 H   0  0  0  0  0  0  0  0  0  0  0  0
    9.4707   34.9005    9.6702 H   0  0  0  0  0  0  0  0  0  0  0  0
    8.7338   35.3008   12.5890 H   0  0  0  0  0  0  0  0  0  0  0  0
    7.7308   34.7456   14.8203 H   0  0  0  0  0  0  0  0  0  0  0  0
   10.2542   37.7353   16.6915 H   0  0  0  0  0  0  0  0  0  0  0  0
  1  2  1  0
  2  3  1  0
  3  4  1  0
  4  5  2  0
  4  6  1  0
  6  7  1  0
  6  8  1  0
  8  9  1  0
  9 10  2  0
 10 11  1  0
 11 12  2  0
 11 13  1  0
 10 14  1  0
 14 15  1  0
 15 16  1  0
 16 17  2  0
 17 18  1  0
 18 19  2  0
 19 20  1  0
 20 21  2  0
 21 22  1  0
 22 23  2  0
 23 24  1  0
 24 25  2  0
 14 26  1  0
 26 27  2  0
 27 28  1  0
 28 29  2  0
 29 30  1  0
 29 31  1  0
 31 32  2  0
 32  9  1  0
 25 16  1  0
 32 26  1  0
 25 20  1  0
  1 33  1  0
  1 34  1  0
  1 35  1  0
  2 36  1  0
  2 37  1  0
  7 38  1  0
  7 39  1  0
  7 40  1  0
  8 41  1  0
  8 42  1  0
 15 43  1  0
 15 44  1  0
 17 45  1  0
 18 46  1  0
 19 47  1  0
 21 48  1  0
 22 49  1  0
 23 50  1  0
 24 51  1  0
 27 52  1  0
 28 53  1  0
 31 54  1  0
M  CHG  1  13  -1
M  END
>  <meeko>  (25) 
{"free_energy": -5.6, "intermolecular_energy": -7.99, "internal_energy": -1.69, "cluster_size": 326, "cluster_id": 11, "rank_in_cluster": 204}

$$$$

     RDKit          3D

 54 57  0  0  0  0  0  0  0  0999 V2000
    9.6290   38.6380   15.7560 C   0  0  0  0  0  0  0  0  0  0  0  0
    9.5620   38.6970   17.2840 C   0  0  0  0  0  0  0  0  0  0  0  0
    9.1450   39.9930   17.6830 O   0  0  0  0  0  0  0  0  0  0  0  0
    9.6470   41.0850   17.0670 C   0  0  0  0  0  0  0  0  0  0  0  0
    8.9440   41.9750   16.5870 O   0  0  0  0  0  0  0  0  0  0  0  0
   11.0480   41.0480   17.0670 N   0  0  0  0  0  0  0  0  0  0  0  0
   11.8140   40.4810   18.1820 C   0  0  0  0  0  0  0  0  0  0  0  0
   11.8240   41.6090   15.9530 C   0  0  0  0  0  0  0  0  0  0  0  0
   11.3860   41.0570   14.6160 C   0  0  0  0  0  0  0  0  0  0  0  0
   11.8940   39.9780   13.9150 C   0  0  0  0  0  0  0  0  0  0  0  0
   12.9900   39.0300   14.2870 C   0  0  0  0  0  0  0  0  0  0  0  0
   13.7000   38.5470   13.3790 O   0  0  0  0  0  0  0  0  0  0  0  0
   13.1790   38.7120   15.4820 O   0  0  0  0  0  1  0  0  0  0  0  0
   11.2140   39.8750   12.6830 N   0  0  0  0  0  0  0  0  0  0  0  0
   11.4010   38.8840   11.6190 C   0  0  0  0  0  0  0  0  0  0  0  0
   10.2720   37.8540   11.4910 C   0  0  0  0  0  0  0  0  0  0  0  0
   10.1300   36.8100   12.4400 C   0  0  0  0  0  0  0  0  0  0  0  0
    9.0970   35.8640   12.3260 C   0  0  0  0  0  0  0  0  0  0  0  0
    8.1870   35.9420   11.2600 C   0  0  0  0  0  0  0  0  0  0  0  0
    8.3080   36.9680   10.3030 C   0  0  0  0  0  0  0  0  0  0  0  0
    7.3860   37.0310    9.2380 C   0  0  0  0  0  0  0  0  0  0  0  0
    7.4870   38.0470    8.2710 C   0  0  0  0  0  0  0  0  0  0  0  0
    8.5130   39.0040    8.3680 C   0  0  0  0  0  0  0  0  0  0  0  0
    9.4380   38.9460    9.4280 C   0  0  0  0  0  0  0  0  0  0  0  0
    9.3500   37.9300   10.4110 C   0  0  0  0  0  0  0  0  0  0  0  0
   10.2700   40.8900   12.5950 C   0  0  0  0  0  0  0  0  0  0  0  0
    9.3530   41.2350   11.5810 C   0  0  0  0  0  0  0  0  0  0  0  0
    8.4890   42.3280   11.7610 C   0  0  0  0  0  0  0  0  0  0  0  0
    8.5420   43.0700   12.9530 C   0  0  0  0  0  0  0  0  0  0  0  0
    7.7090   44.1230   13.1340 F   0  0  0  0  0  0  0  0  0  0  0  0
    9.4630   42.7210   13.9600 C   0  0  0  0  0  0  0  0  0  0  0  0
   10.3510   41.6300   13.8050 C   0  0  0  0  0  0  0  0  0  0  0  0
   10.4221   37.9396   15.4504 H   0  0  0  0  0  0  0  0  0  0  0  0
    8.6630   38.2919   15.3597 H   0  0  0  0  0  0  0  0  0  0  0  0
    9.8501   39.6400   15.3597 H   0  0  0  0  0  0  0  0  0  0  0  0
    8.8421   37.9500   17.6498 H   0  0  0  0  0  0  0  0  0  0  0  0
   10.5548   38.4820   17.7060 H   0  0  0  0  0  0  0  0  0  0  0  0
   11.3718   40.8083   19.1346 H   0  0  0  0  0  0  0  0  0  0  0  0
   11.7880   39.3828   18.1238 H   0  0  0  0  0  0  0  0  0  0  0  0
   12.8567   40.8266   18.1238 H   0  0  0  0  0  0  0  0  0  0  0  0
   11.6934   42.7012   15.9451 H   0  0  0  0  0  0  0  0  0  0  0  0
   12.8780   41.3325   16.1032 H   0  0  0  0  0  0  0  0  0  0  0  0
   11.4839   39.4209   10.6625 H   0  0  0  0  0  0  0  0  0  0  0  0
   12.3073   38.3179   11.8802 H   0  0  0  0  0  0  0  0  0  0  0  0
   10.8391   36.7395   13.2780 H   0  0  0  0  0  0  0  0  0  0  0  0
    9.0015   35.0619   13.0726 H   0  0  0  0  0  0  0  0  0  0  0  0
    7.3787   35.2011   11.1721 H   0  0  0  0  0  0  0  0  0  0  0  0
    6.5840   36.2819    9.1632 H   0  0  0  0  0  0  0  0  0  0  0  0
    6.7660   38.0931    7.4415 H   0  0  0  0  0  0  0  0  0  0  0  0
    8.5931   39.8003    7.6134 H   0  0  0  0  0  0  0  0  0  0  0  0
   10.2380   39.6982    9.4934 H   0  0  0  0  0  0  0  0  0  0  0  0
    9.3142   40.6494   10.6507 H   0  0  0  0  0  0  0  0  0  0  0  0
    7.7736   42.6019   10.9716 H   0  0  0  0  0  0  0  0  0  0  0  0
    9.4927   43.3101   14.8885 H   0  0  0  0  0  0  0  0  0  0  0  0
  1  2  1  0
  2  3  1  0
  3  4  1  0
  4  5  2  0
  4  6  1  0
  6  7  1  0
  6  8  1  0
  8  9  1  0
  9 10  2  0
 10 11  1  0
 11 12  2  0
 11 13  1  0
 10 14  1  0
 14 15  1  0
 15 16  1  0
 16 17  2  0
 17 18  1  0
 18 19  2  0
 19 20  1  0
 20 21  2  0
 21 22  1  0
 22 23  2  0
 23 24  1  0
 24 25  2  0
 14 26  1  0
 26 27  2  0
 27 28  1  0
 28 29  2  0
 29 30  1  0
 29 31  1  0
 31 32  2  0
 32  9  1  0
 25 16  1  0
 32 26  1  0
 25 20  1  0
  1 33  1  0
  1 34  1  0
  1 35  1  0
  2 36  1  0
  2 37  1  0
  7 38  1  0
  7 39  1  0
  7 40  1  0
  8 41  1  0
  8 42  1  0
 15 43  1  0
 15 44  1  0
 17 45  1  0
 18 46  1  0
 19 47  1  0
 21 48  1  0
 22 49  1  0
 23 50  1  0
 24 51  1  0
 27 52  1  0
 28 53  1  0
 31 54  1  0
M  CHG  1  13  -1
M  END
>  <meeko>  (26) 
{"free_energy": -4.99, "intermolecular_energy": -7.38, "internal_energy": -2.19, "cluster_size": 47, "cluster_id": 29, "rank_in_cluster": 29}

$$$$

     RDKit          3D

 54 57  0  0  0  0  0  0  0  0999 V2000
   14.5750   42.2030   17.9790 C   0  0  0  0  0  0  0  0  0  0  0  0
   15.2960   41.0160   17.3340 C   0  0  0  0  0  0  0  0  0  0  0  0
   15.7190   41.3810   16.0300 O   0  0  0  0  0  0  0  0  0  0  0  0
   15.4260   40.5870   14.9770 C   0  0  0  0  0  0  0  0  0  0  0  0
   16.2290   39.7950   14.4810 O   0  0  0  0  0  0  0  0  0  0  0  0
   14.1060   40.7960   14.5570 N   0  0  0  0  0  0  0  0  0  0  0  0
   13.7490   41.8460   13.5970 C   0  0  0  0  0  0  0  0  0  0  0  0
   13.0010   39.9840   15.0860 C   0  0  0  0  0  0  0  0  0  0  0  0
   12.2380   39.2740   13.9910 C   0  0  0  0  0  0  0  0  0  0  0  0
   10.9100   38.8870   13.9720 C   0  0  0  0  0  0  0  0  0  0  0  0
    9.8440   39.0850   15.0030 C   0  0  0  0  0  0  0  0  0  0  0  0
    9.1670   38.0980   15.3650 O   0  0  0  0  0  0  0  0  0  0  0  0
    9.6210   40.2200   15.4780 O   0  0  0  0  0  1  0  0  0  0  0  0
   10.6550   38.1980   12.7670 N   0  0  0  0  0  0  0  0  0  0  0  0
    9.3940   37.6140   12.3020 C   0  0  0  0  0  0  0  0  0  0  0  0
    8.9280   38.1000   10.9230 C   0  0  0  0  0  0  0  0  0  0  0  0
    8.9960   39.4720   10.5760 C   0  0  0  0  0  0  0  0  0  0  0  0
    8.5710   39.9220    9.3140 C   0  0  0  0  0  0  0  0  0  0  0  0
    8.0670   39.0070    8.3750 C   0  0  0  0  0  0  0  0  0  0  0  0
    7.9880   37.6390    8.6970 C   0  0  0  0  0  0  0  0  0  0  0  0
    7.4780   36.7340    7.7420 C   0  0  0  0  0  0  0  0  0  0  0  0
    7.3900   35.3630    8.0420 C   0  0  0  0  0  0  0  0  0  0  0  0
    7.8120   34.8930    9.2980 C   0  0  0  0  0  0  0  0  0  0  0  0
    8.3200   35.7910   10.2560 C   0  0  0  0  0  0  0  0  0  0  0  0
    8.4170   37.1760    9.9710 C   0  0  0  0  0  0  0  0  0  0  0  0
   11.8210   38.1450   12.0150 C   0  0  0  0  0  0  0  0  0  0  0  0
   12.1050   37.5670   10.7600 C   0  0  0  0  0  0  0  0  0  0  0  0
   13.3960   37.6710   10.2160 C   0  0  0  0  0  0  0  0  0  0  0  0
   14.3980   38.3530   10.9280 C   0  0  0  0  0  0  0  0  0  0  0  0
   15.6440   38.4590   10.4070 F   0  0  0  0  0  0  0  0  0  0  0  0
   14.1090   38.9230   12.1820 C   0  0  0  0  0  0  0  0  0  0  0  0
   12.8190   38.8300   12.7590 C   0  0  0  0  0  0  0  0  0  0  0  0
   14.6291   42.1139   19.0740 H   0  0  0  0  0  0  0  0  0  0  0  0
   15.0566   43.1402   17.6631 H   0  0  0  0  0  0  0  0  0  0  0  0
   13.5213   42.2076   17.6631 H   0  0  0  0  0  0  0  0  0  0  0  0
   16.1711   40.7424   17.9418 H   0  0  0  0  0  0  0  0  0  0  0  0
   14.6126   40.1561   17.2742 H   0  0  0  0  0  0  0  0  0  0  0  0
   13.4413   42.7511   14.1412 H   0  0  0  0  0  0  0  0  0  0  0  0
   14.6193   42.0763   12.9650 H   0  0  0  0  0  0  0  0  0  0  0  0
   12.9187   41.4980   12.9650 H   0  0  0  0  0  0  0  0  0  0  0  0
   13.4125   39.2322   15.7756 H   0  0  0  0  0  0  0  0  0  0  0  0
   12.3021   40.6598   15.6006 H   0  0  0  0  0  0  0  0  0  0  0  0
    9.5195   36.5222   12.2553 H   0  0  0  0  0  0  0  0  0  0  0  0
    8.6229   37.9327   13.0188 H   0  0  0  0  0  0  0  0  0  0  0  0
    9.3875   40.1963   11.3055 H   0  0  0  0  0  0  0  0  0  0  0  0
    8.6331   40.9909    9.0617 H   0  0  0  0  0  0  0  0  0  0  0  0
    7.7339   39.3596    7.3877 H   0  0  0  0  0  0  0  0  0  0  0  0
    7.1481   37.1023    6.7594 H   0  0  0  0  0  0  0  0  0  0  0  0
    6.9919   34.6598    7.2956 H   0  0  0  0  0  0  0  0  0  0  0  0
    7.7451   33.8205    9.5329 H   0  0  0  0  0  0  0  0  0  0  0  0
    8.6453   35.4135   11.2367 H   0  0  0  0  0  0  0  0  0  0  0  0
   11.3162   37.0352   10.2077 H   0  0  0  0  0  0  0  0  0  0  0  0
   13.6217   37.2211    9.2379 H   0  0  0  0  0  0  0  0  0  0  0  0
   14.9040   39.4533   12.7268 H   0  0  0  0  0  0  0  0  0  0  0  0
  1  2  1  0
  2  3  1  0
  3  4  1  0
  4  5  2  0
  4  6  1  0
  6  7  1  0
  6  8  1  0
  8  9  1  0
  9 10  2  0
 10 11  1  0
 11 12  2  0
 11 13  1  0
 10 14  1  0
 14 15  1  0
 15 16  1  0
 16 17  2  0
 17 18  1  0
 18 19  2  0
 19 20  1  0
 20 21  2  0
 21 22  1  0
 22 23  2  0
 23 24  1  0
 24 25  2  0
 14 26  1  0
 26 27  2  0
 27 28  1  0
 28 29  2  0
 29 30  1  0
 29 31  1  0
 31 32  2  0
 32  9  1  0
 25 16  1  0
 32 26  1  0
 25 20  1  0
  1 33  1  0
  1 34  1  0
  1 35  1  0
  2 36  1  0
  2 37  1  0
  7 38  1  0
  7 39  1  0
  7 40  1  0
  8 41  1  0
  8 42  1  0
 15 43  1  0
 15 44  1  0
 17 45  1  0
 18 46  1  0
 19 47  1  0
 21 48  1  0
 22 49  1  0
 23 50  1  0
 24 51  1  0
 27 52  1  0
 28 53  1  0
 31 54  1  0
M  CHG  1  13  -1
M  END
>  <meeko>  (27) 
{"free_energy": -5.92, "intermolecular_energy": -8.3, "internal_energy": -1.75, "cluster_size": 283, "cluster_id": 7, "rank_in_cluster": 171}

$$$$

     RDKit          3D

 54 57  0  0  0  0  0  0  0  0999 V2000
    5.9570   38.9520    6.0600 C   0  0  0  0  0  0  0  0  0  0  0  0
    6.6290   37.6930    6.6140 C   0  0  0  0  0  0  0  0  0  0  0  0
    7.9110   38.0300    7.1180 O   0  0  0  0  0  0  0  0  0  0  0  0
    8.3740   37.4380    8.2390 C   0  0  0  0  0  0  0  0  0  0  0  0
    8.8520   36.3020    8.2570 O   0  0  0  0  0  0  0  0  0  0  0  0
    8.2370   38.2930    9.3400 N   0  0  0  0  0  0  0  0  0  0  0  0
    7.0500   38.2700   10.2020 C   0  0  0  0  0  0  0  0  0  0  0  0
    9.2710   39.2820    9.6700 C   0  0  0  0  0  0  0  0  0  0  0  0
    9.7390   39.1650   11.1020 C   0  0  0  0  0  0  0  0  0  0  0  0
   10.2350   38.0550   11.7630 C   0  0  0  0  0  0  0  0  0  0  0  0
   10.4840   36.6710   11.2510 C   0  0  0  0  0  0  0  0  0  0  0  0
   11.6330   36.3730   10.8610 O   0  0  0  0  0  0  0  0  0  0  0  0
    9.5550   35.8360   11.1960 O   0  0  0  0  0  1  0  0  0  0  0  0
   10.4830   38.4010   13.1090 N   0  0  0  0  0  0  0  0  0  0  0  0
   11.0180   37.5590   14.1820 C   0  0  0  0  0  0  0  0  0  0  0  0
   10.0190   36.5570   14.7760 C   0  0  0  0  0  0  0  0  0  0  0  0
    9.7580   35.3220   14.1300 C   0  0  0  0  0  0  0  0  0  0  0  0
    8.8440   34.4020   14.6700 C   0  0  0  0  0  0  0  0  0  0  0  0
    8.1700   34.7000   15.8660 C   0  0  0  0  0  0  0  0  0  0  0  0
    8.4110   35.9210   16.5250 C   0  0  0  0  0  0  0  0  0  0  0  0
    7.7250   36.2040   17.7240 C   0  0  0  0  0  0  0  0  0  0  0  0
    7.9490   37.4170   18.3990 C   0  0  0  0  0  0  0  0  0  0  0  0
    8.8610   38.3510   17.8760 C   0  0  0  0  0  0  0  0  0  0  0  0
    9.5480   38.0740   16.6780 C   0  0  0  0  0  0  0  0  0  0  0  0
    9.3350   36.8570   15.9850 C   0  0  0  0  0  0  0  0  0  0  0  0
   10.1440   39.7330   13.3090 C   0  0  0  0  0  0  0  0  0  0  0  0
   10.1870   40.5520   14.4560 C   0  0  0  0  0  0  0  0  0  0  0  0
    9.7850   41.8950   14.3740 C   0  0  0  0  0  0  0  0  0  0  0  0
    9.3450   42.4160   13.1450 C   0  0  0  0  0  0  0  0  0  0  0  0
    8.9600   43.7120   13.0580 F   0  0  0  0  0  0  0  0  0  0  0  0
    9.3010   41.5920   12.0040 C   0  0  0  0  0  0  0  0  0  0  0  0
    9.6930   40.2320   12.0570 C   0  0  0  0  0  0  0  0  0  0  0  0
    5.6193   39.5846    6.8941 H   0  0  0  0  0  0  0  0  0  0  0  0
    6.6767   39.5109    5.4439 H   0  0  0  0  0  0  0  0  0  0  0  0
    5.0921   38.6651    5.4439 H   0  0  0  0  0  0  0  0  0  0  0  0
    6.0140   37.2743    7.4242 H   0  0  0  0  0  0  0  0  0  0  0  0
    6.7323   36.9469    5.8123 H   0  0  0  0  0  0  0  0  0  0  0  0
    7.3626   38.2761   11.2566 H   0  0  0  0  0  0  0  0  0  0  0  0
    6.4313   39.1563    9.9978 H   0  0  0  0  0  0  0  0  0  0  0  0
    6.4661   37.3604    9.9978 H   0  0  0  0  0  0  0  0  0  0  0  0
   10.1321   39.1298    9.0027 H   0  0  0  0  0  0  0  0  0  0  0  0
    8.8339   40.2829    9.5391 H   0  0  0  0  0  0  0  0  0  0  0  0
   11.8710   36.9931   13.7792 H   0  0  0  0  0  0  0  0  0  0  0  0
   11.2948   38.2404   15.0000 H   0  0  0  0  0  0  0  0  0  0  0  0
   10.2791   35.0807   13.1918 H   0  0  0  0  0  0  0  0  0  0  0  0
    8.6560   33.4478   14.1561 H   0  0  0  0  0  0  0  0  0  0  0  0
    7.4538   33.9795   16.2878 H   0  0  0  0  0  0  0  0  0  0  0  0
    7.0119   35.4730   18.1329 H   0  0  0  0  0  0  0  0  0  0  0  0
    7.4121   37.6349   19.3340 H   0  0  0  0  0  0  0  0  0  0  0  0
    9.0382   39.2998   18.4036 H   0  0  0  0  0  0  0  0  0  0  0  0
   10.2583   38.8114   16.2758 H   0  0  0  0  0  0  0  0  0  0  0  0
   10.5352   40.1392   15.4143 H   0  0  0  0  0  0  0  0  0  0  0  0
    9.8143   42.5362   15.2673 H   0  0  0  0  0  0  0  0  0  0  0  0
    8.9541   42.0143   11.0494 H   0  0  0  0  0  0  0  0  0  0  0  0
  1  2  1  0
  2  3  1  0
  3  4  1  0
  4  5  2  0
  4  6  1  0
  6  7  1  0
  6  8  1  0
  8  9  1  0
  9 10  2  0
 10 11  1  0
 11 12  2  0
 11 13  1  0
 10 14  1  0
 14 15  1  0
 15 16  1  0
 16 17  2  0
 17 18  1  0
 18 19  2  0
 19 20  1  0
 20 21  2  0
 21 22  1  0
 22 23  2  0
 23 24  1  0
 24 25  2  0
 14 26  1  0
 26 27  2  0
 27 28  1  0
 28 29  2  0
 29 30  1  0
 29 31  1  0
 31 32  2  0
 32  9  1  0
 25 16  1  0
 32 26  1  0
 25 20  1  0
  1 33  1  0
  1 34  1  0
  1 35  1  0
  2 36  1  0
  2 37  1  0
  7 38  1  0
  7 39  1  0
  7 40  1  0
  8 41  1  0
  8 42  1  0
 15 43  1  0
 15 44  1  0
 17 45  1  0
 18 46  1  0
 19 47  1  0
 21 48  1  0
 22 49  1  0
 23 50  1  0
 24 51  1  0
 27 52  1  0
 28 53  1  0
 31 54  1  0
M  CHG  1  13  -1
M  END
>  <meeko>  (28) 
{"free_energy": -5.18, "intermolecular_energy": -7.57, "internal_energy": -1.85, "cluster_size": 136, "cluster_id": 23, "rank_in_cluster": 108}

$$$$

     RDKit          3D

 54 57  0  0  0  0  0  0  0  0999 V2000
   10.2460   40.9780   15.7040 C   0  0  0  0  0  0  0  0  0  0  0  0
   11.1090   40.5470   14.5150 C   0  0  0  0  0  0  0  0  0  0  0  0
   12.2030   41.4400   14.3840 O   0  0  0  0  0  0  0  0  0  0  0  0
   12.0340   42.6320   13.7740 C   0  0  0  0  0  0  0  0  0  0  0  0
   11.2680   43.5040   14.1900 O   0  0  0  0  0  0  0  0  0  0  0  0
   12.8450   42.7220   12.6360 N   0  0  0  0  0  0  0  0  0  0  0  0
   13.2870   44.0110   12.0920 C   0  0  0  0  0  0  0  0  0  0  0  0
   13.2720   41.5190   11.9080 C   0  0  0  0  0  0  0  0  0  0  0  0
   12.1150   40.8170   11.2360 C   0  0  0  0  0  0  0  0  0  0  0  0
   12.1330   39.6820   10.4450 C   0  0  0  0  0  0  0  0  0  0  0  0
   13.2830   38.8070   10.0560 C   0  0  0  0  0  0  0  0  0  0  0  0
   13.2740   37.6100   10.4150 O   0  0  0  0  0  0  0  0  0  0  0  0
   14.2420   39.2700    9.4020 O   0  0  0  0  0  1  0  0  0  0  0  0
   10.8230   39.4300    9.9830 N   0  0  0  0  0  0  0  0  0  0  0  0
   10.3540   38.3360    9.1280 C   0  0  0  0  0  0  0  0  0  0  0  0
    9.4340   37.3230    9.8220 C   0  0  0  0  0  0  0  0  0  0  0  0
    9.5200   37.1040   11.2200 C   0  0  0  0  0  0  0  0  0  0  0  0
    8.6790   36.1780   11.8610 C   0  0  0  0  0  0  0  0  0  0  0  0
    7.7380   35.4500   11.1140 C   0  0  0  0  0  0  0  0  0  0  0  0
    7.6340   35.6490    9.7250 C   0  0  0  0  0  0  0  0  0  0  0  0
    6.6840   34.9090    8.9910 C   0  0  0  0  0  0  0  0  0  0  0  0
    6.5630   35.0900    7.6020 C   0  0  0  0  0  0  0  0  0  0  0  0
    7.3940   36.0140    6.9430 C   0  0  0  0  0  0  0  0  0  0  0  0
    8.3460   36.7550    7.6690 C   0  0  0  0  0  0  0  0  0  0  0  0
    8.4810   36.5850    9.0690 C   0  0  0  0  0  0  0  0  0  0  0  0
    9.9670   40.4050   10.4790 C   0  0  0  0  0  0  0  0  0  0  0  0
    8.5840   40.6160   10.3080 C   0  0  0  0  0  0  0  0  0  0  0  0
    7.9560   41.7000   10.9450 C   0  0  0  0  0  0  0  0  0  0  0  0
    8.7130   42.5670   11.7520 C   0  0  0  0  0  0  0  0  0  0  0  0
    8.1140   43.6110   12.3720 F   0  0  0  0  0  0  0  0  0  0  0  0
   10.0950   42.3510   11.9150 C   0  0  0  0  0  0  0  0  0  0  0  0
   10.7570   41.2720   11.2800 C   0  0  0  0  0  0  0  0  0  0  0  0
   10.7598   40.7214   16.6421 H   0  0  0  0  0  0  0  0  0  0  0  0
   10.0804   42.0646   15.6620 H   0  0  0  0  0  0  0  0  0  0  0  0
    9.2778   40.4576   15.6620 H   0  0  0  0  0  0  0  0  0  0  0  0
   11.4849   39.5271   14.6839 H   0  0  0  0  0  0  0  0  0  0  0  0
   10.5058   40.5646   13.5953 H   0  0  0  0  0  0  0  0  0  0  0  0
   13.5222   44.6968   12.9192 H   0  0  0  0  0  0  0  0  0  0  0  0
   14.1847   43.8599   11.4745 H   0  0  0  0  0  0  0  0  0  0  0  0
   12.4855   44.4426   11.4745 H   0  0  0  0  0  0  0  0  0  0  0  0
   14.0035   41.8108   11.1400 H   0  0  0  0  0  0  0  0  0  0  0  0
   13.7123   40.8223   12.6365 H   0  0  0  0  0  0  0  0  0  0  0  0
    9.8033   38.7748    8.2829 H   0  0  0  0  0  0  0  0  0  0  0  0
   11.2509   37.7783    8.8206 H   0  0  0  0  0  0  0  0  0  0  0  0
   10.2562   37.6674   11.8122 H   0  0  0  0  0  0  0  0  0  0  0  0
    8.7576   36.0234   12.9472 H   0  0  0  0  0  0  0  0  0  0  0  0
    7.0817   34.7235   11.6156 H   0  0  0  0  0  0  0  0  0  0  0  0
    6.0347   34.1869    9.5076 H   0  0  0  0  0  0  0  0  0  0  0  0
    5.8210   34.5110    7.0326 H   0  0  0  0  0  0  0  0  0  0  0  0
    7.2998   36.1582    5.8566 H   0  0  0  0  0  0  0  0  0  0  0  0
    8.9920   37.4737    7.1435 H   0  0  0  0  0  0  0  0  0  0  0  0
    7.9968   39.9330    9.6766 H   0  0  0  0  0  0  0  0  0  0  0  0
    6.8772   41.8692   10.8127 H   0  0  0  0  0  0  0  0  0  0  0  0
   10.6742   43.0368   12.5508 H   0  0  0  0  0  0  0  0  0  0  0  0
  1  2  1  0
  2  3  1  0
  3  4  1  0
  4  5  2  0
  4  6  1  0
  6  7  1  0
  6  8  1  0
  8  9  1  0
  9 10  2  0
 10 11  1  0
 11 12  2  0
 11 13  1  0
 10 14  1  0
 14 15  1  0
 15 16  1  0
 16 17  2  0
 17 18  1  0
 18 19  2  0
 19 20  1  0
 20 21  2  0
 21 22  1  0
 22 23  2  0
 23 24  1  0
 24 25  2  0
 14 26  1  0
 26 27  2  0
 27 28  1  0
 28 29  2  0
 29 30  1  0
 29 31  1  0
 31 32  2  0
 32  9  1  0
 25 16  1  0
 32 26  1  0
 25 20  1  0
  1 33  1  0
  1 34  1  0
  1 35  1  0
  2 36  1  0
  2 37  1  0
  7 38  1  0
  7 39  1  0
  7 40  1  0
  8 41  1  0
  8 42  1  0
 15 43  1  0
 15 44  1  0
 17 45  1  0
 18 46  1  0
 19 47  1  0
 21 48  1  0
 22 49  1  0
 23 50  1  0
 24 51  1  0
 27 52  1  0
 28 53  1  0
 31 54  1  0
M  CHG  1  13  -1
M  END
>  <meeko>  (29) 
{"free_energy": -4.7, "intermolecular_energy": -7.09, "internal_energy": -1.24, "cluster_size": 47, "cluster_id": 29, "rank_in_cluster": 37}

$$$$

     RDKit          3D

 54 57  0  0  0  0  0  0  0  0999 V2000
   18.1490   40.3440   10.4170 C   0  0  0  0  0  0  0  0  0  0  0  0
   18.0270   38.8960   10.9000 C   0  0  0  0  0  0  0  0  0  0  0  0
   17.6010   38.8890   12.2530 O   0  0  0  0  0  0  0  0  0  0  0  0
   16.2960   38.7090   12.5500 C   0  0  0  0  0  0  0  0  0  0  0  0
   15.6680   37.6910   12.2570 O   0  0  0  0  0  0  0  0  0  0  0  0
   15.7880   39.8250   13.2270 N   0  0  0  0  0  0  0  0  0  0  0  0
   16.5550   41.0680   13.3690 C   0  0  0  0  0  0  0  0  0  0  0  0
   14.4630   39.7950   13.8600 C   0  0  0  0  0  0  0  0  0  0  0  0
   13.3880   39.3160   12.9120 C   0  0  0  0  0  0  0  0  0  0  0  0
   12.2450   38.5890   13.1950 C   0  0  0  0  0  0  0  0  0  0  0  0
   11.7260   38.1000   14.5100 C   0  0  0  0  0  0  0  0  0  0  0  0
   10.4940   38.1250   14.7160 O   0  0  0  0  0  0  0  0  0  0  0  0
   12.5120   37.6930   15.3930 O   0  0  0  0  0  1  0  0  0  0  0  0
   11.5700   38.3150   11.9860 N   0  0  0  0  0  0  0  0  0  0  0  0
   10.3140   37.5860   11.7890 C   0  0  0  0  0  0  0  0  0  0  0  0
    9.4300   38.1190   10.6540 C   0  0  0  0  0  0  0  0  0  0  0  0
    9.1580   39.5050   10.5350 C   0  0  0  0  0  0  0  0  0  0  0  0
    8.3490   39.9980    9.4960 C   0  0  0  0  0  0  0  0  0  0  0  0
    7.7950   39.1120    8.5580 C   0  0  0  0  0  0  0  0  0  0  0  0
    8.0480   37.7310    8.6560 C   0  0  0  0  0  0  0  0  0  0  0  0
    7.4830   36.8570    7.7050 C   0  0  0  0  0  0  0  0  0  0  0  0
    7.7220   35.4730    7.7830 C   0  0  0  0  0  0  0  0  0  0  0  0
    8.5300   34.9610    8.8140 C   0  0  0  0  0  0  0  0  0  0  0  0
    9.0970   35.8290    9.7670 C   0  0  0  0  0  0  0  0  0  0  0  0
    8.8660   37.2250    9.7030 C   0  0  0  0  0  0  0  0  0  0  0  0
   12.2830   38.8670   10.9290 C   0  0  0  0  0  0  0  0  0  0  0  0
   12.0520   38.8670    9.5380 C   0  0  0  0  0  0  0  0  0  0  0  0
   12.9480   39.5230    8.6780 C   0  0  0  0  0  0  0  0  0  0  0  0
   14.0710   40.1790    9.2120 C   0  0  0  0  0  0  0  0  0  0  0  0
   14.9370   40.8170    8.3890 F   0  0  0  0  0  0  0  0  0  0  0  0
   14.2970   40.1720   10.6020 C   0  0  0  0  0  0  0  0  0  0  0  0
   13.4150   39.5130   11.4930 C   0  0  0  0  0  0  0  0  0  0  0  0
   18.2057   41.0167   11.2855 H   0  0  0  0  0  0  0  0  0  0  0  0
   19.0595   40.4523    9.8093 H   0  0  0  0  0  0  0  0  0  0  0  0
   17.2695   40.6031    9.8093 H   0  0  0  0  0  0  0  0  0  0  0  0
   17.2915   38.3623   10.2801 H   0  0  0  0  0  0  0  0  0  0  0  0
   19.0033   38.3959   10.8178 H   0  0  0  0  0  0  0  0  0  0  0  0
   16.6939   41.2932   14.4367 H   0  0  0  0  0  0  0  0  0  0  0  0
   17.5373   40.9496   12.8884 H   0  0  0  0  0  0  0  0  0  0  0  0
   16.0087   41.8929   12.8884 H   0  0  0  0  0  0  0  0  0  0  0  0
   14.4993   39.1175   14.7258 H   0  0  0  0  0  0  0  0  0  0  0  0
   14.2112   40.8214   14.1651 H   0  0  0  0  0  0  0  0  0  0  0  0
   10.5588   36.5367   11.5677 H   0  0  0  0  0  0  0  0  0  0  0  0
    9.7354   37.7114   12.7161 H   0  0  0  0  0  0  0  0  0  0  0  0
    9.5864   40.2057   11.2668 H   0  0  0  0  0  0  0  0  0  0  0  0
    8.1502   41.0771    9.4180 H   0  0  0  0  0  0  0  0  0  0  0  0
    7.1622   39.4980    7.7452 H   0  0  0  0  0  0  0  0  0  0  0  0
    6.8524   37.2591    6.8984 H   0  0  0  0  0  0  0  0  0  0  0  0
    7.2785   34.7936    7.0402 H   0  0  0  0  0  0  0  0  0  0  0  0
    8.7196   33.8793    8.8762 H   0  0  0  0  0  0  0  0  0  0  0  0
    9.7264   35.4182   10.5702 H   0  0  0  0  0  0  0  0  0  0  0  0
   11.1705   38.3535    9.1266 H   0  0  0  0  0  0  0  0  0  0  0  0
   12.7720   39.5235    7.5922 H   0  0  0  0  0  0  0  0  0  0  0  0
   15.1793   40.6906   11.0053 H   0  0  0  0  0  0  0  0  0  0  0  0
  1  2  1  0
  2  3  1  0
  3  4  1  0
  4  5  2  0
  4  6  1  0
  6  7  1  0
  6  8  1  0
  8  9  1  0
  9 10  2  0
 10 11  1  0
 11 12  2  0
 11 13  1  0
 10 14  1  0
 14 15  1  0
 15 16  1  0
 16 17  2  0
 17 18  1  0
 18 19  2  0
 19 20  1  0
 20 21  2  0
 21 22  1  0
 22 23  2  0
 23 24  1  0
 24 25  2  0
 14 26  1  0
 26 27  2  0
 27 28  1  0
 28 29  2  0
 29 30  1  0
 29 31  1  0
 31 32  2  0
 32  9  1  0
 25 16  1  0
 32 26  1  0
 25 20  1  0
  1 33  1  0
  1 34  1  0
  1 35  1  0
  2 36  1  0
  2 37  1  0
  7 38  1  0
  7 39  1  0
  7 40  1  0
  8 41  1  0
  8 42  1  0
 15 43  1  0
 15 44  1  0
 17 45  1  0
 18 46  1  0
 19 47  1  0
 21 48  1  0
 22 49  1  0
 23 50  1  0
 24 51  1  0
 27 52  1  0
 28 53  1  0
 31 54  1  0
M  CHG  1  13  -1
M  END
>  <meeko>  (30) 
{"free_energy": -6.07, "intermolecular_energy": -8.45, "internal_energy": -1.67, "cluster_size": 167, "cluster_id": 22, "rank_in_cluster": 36}

$$$$

     RDKit          3D

 54 57  0  0  0  0  0  0  0  0999 V2000
   18.0710   41.1040    3.8650 C   0  0  0  0  0  0  0  0  0  0  0  0
   18.2860   39.7170    4.4750 C   0  0  0  0  0  0  0  0  0  0  0  0
   17.9920   39.7670    5.8620 O   0  0  0  0  0  0  0  0  0  0  0  0
   18.1330   40.9250    6.5420 C   0  0  0  0  0  0  0  0  0  0  0  0
   19.2260   41.4260    6.8080 O   0  0  0  0  0  0  0  0  0  0  0  0
   16.8790   41.4520    6.8800 N   0  0  0  0  0  0  0  0  0  0  0  0
   16.7320   42.5850    7.8010 C   0  0  0  0  0  0  0  0  0  0  0  0
   15.6400   40.8710    6.3470 C   0  0  0  0  0  0  0  0  0  0  0  0
   14.5490   40.7960    7.3900 C   0  0  0  0  0  0  0  0  0  0  0  0
   13.4860   41.6570    7.5960 C   0  0  0  0  0  0  0  0  0  0  0  0
   13.0900   42.8820    6.8340 C   0  0  0  0  0  0  0  0  0  0  0  0
   11.8990   43.2580    6.8790 O   0  0  0  0  0  0  0  0  0  0  0  0
   13.9300   43.5060    6.1500 O   0  0  0  0  0  1  0  0  0  0  0  0
   12.7610   41.2220    8.7260 N   0  0  0  0  0  0  0  0  0  0  0  0
   11.5560   41.8120    9.3170 C   0  0  0  0  0  0  0  0  0  0  0  0
   11.7500   42.4060   10.7180 C   0  0  0  0  0  0  0  0  0  0  0  0
   13.0300   42.8260   11.1580 C   0  0  0  0  0  0  0  0  0  0  0  0
   13.2120   43.3710   12.4410 C   0  0  0  0  0  0  0  0  0  0  0  0
   12.1160   43.5040   13.3090 C   0  0  0  0  0  0  0  0  0  0  0  0
   10.8350   43.0930   12.8960 C   0  0  0  0  0  0  0  0  0  0  0  0
    9.7460   43.2330   13.7810 C   0  0  0  0  0  0  0  0  0  0  0  0
    8.4570   42.8290   13.3900 C   0  0  0  0  0  0  0  0  0  0  0  0
    8.2550   42.2820   12.1100 C   0  0  0  0  0  0  0  0  0  0  0  0
    9.3380   42.1380   11.2220 C   0  0  0  0  0  0  0  0  0  0  0  0
   10.6430   42.5410   11.6000 C   0  0  0  0  0  0  0  0  0  0  0  0
   13.3610   40.0820    9.2440 C   0  0  0  0  0  0  0  0  0  0  0  0
   13.0450   39.2770   10.3570 C   0  0  0  0  0  0  0  0  0  0  0  0
   13.8330   38.1520   10.6550 C   0  0  0  0  0  0  0  0  0  0  0  0
   14.9320   37.8350    9.8380 C   0  0  0  0  0  0  0  0  0  0  0  0
   15.6930   36.7500   10.1170 F   0  0  0  0  0  0  0  0  0  0  0  0
   15.2440   38.6460    8.7290 C   0  0  0  0  0  0  0  0  0  0  0  0
   14.4730   39.7900    8.4080 C   0  0  0  0  0  0  0  0  0  0  0  0
   17.9562   41.8448    4.6700 H   0  0  0  0  0  0  0  0  0  0  0  0
   18.9387   41.3696    3.2433 H   0  0  0  0  0  0  0  0  0  0  0  0
   17.1636   41.0945    3.2433 H   0  0  0  0  0  0  0  0  0  0  0  0
   17.6206   38.9918    3.9837 H   0  0  0  0  0  0  0  0  0  0  0  0
   19.3314   39.4072    4.3296 H   0  0  0  0  0  0  0  0  0  0  0  0
   16.7790   42.2226    8.8385 H   0  0  0  0  0  0  0  0  0  0  0  0
   17.5441   43.3064    7.6274 H   0  0  0  0  0  0  0  0  0  0  0  0
   15.7627   43.0753    7.6274 H   0  0  0  0  0  0  0  0  0  0  0  0
   15.2883   41.4931    5.5108 H   0  0  0  0  0  0  0  0  0  0  0  0
   15.8628   39.8454    6.0175 H   0  0  0  0  0  0  0  0  0  0  0  0
   11.2060   42.6143    8.6508 H   0  0  0  0  0  0  0  0  0  0  0  0
   10.8318   40.9913    9.4267 H   0  0  0  0  0  0  0  0  0  0  0  0
   13.8943   42.7240   10.4853 H   0  0  0  0  0  0  0  0  0  0  0  0
   14.2126   43.6932   12.7650 H   0  0  0  0  0  0  0  0  0  0  0  0
   12.2590   43.9300   14.3130 H   0  0  0  0  0  0  0  0  0  0  0  0
    9.9056   43.6603   14.7820 H   0  0  0  0  0  0  0  0  0  0  0  0
    7.6098   42.9404   14.0827 H   0  0  0  0  0  0  0  0  0  0  0  0
    7.2476   41.9657   11.8018 H   0  0  0  0  0  0  0  0  0  0  0  0
    9.1693   41.7079   10.2237 H   0  0  0  0  0  0  0  0  0  0  0  0
   12.1826   39.5290   10.9917 H   0  0  0  0  0  0  0  0  0  0  0  0
   13.5907   37.5223   11.5238 H   0  0  0  0  0  0  0  0  0  0  0  0
   16.1062   38.3847    8.0979 H   0  0  0  0  0  0  0  0  0  0  0  0
  1  2  1  0
  2  3  1  0
  3  4  1  0
  4  5  2  0
  4  6  1  0
  6  7  1  0
  6  8  1  0
  8  9  1  0
  9 10  2  0
 10 11  1  0
 11 12  2  0
 11 13  1  0
 10 14  1  0
 14 15  1  0
 15 16  1  0
 16 17  2  0
 17 18  1  0
 18 19  2  0
 19 20  1  0
 20 21  2  0
 21 22  1  0
 22 23  2  0
 23 24  1  0
 24 25  2  0
 14 26  1  0
 26 27  2  0
 27 28  1  0
 28 29  2  0
 29 30  1  0
 29 31  1  0
 31 32  2  0
 32  9  1  0
 25 16  1  0
 32 26  1  0
 25 20  1  0
  1 33  1  0
  1 34  1  0
  1 35  1  0
  2 36  1  0
  2 37  1  0
  7 38  1  0
  7 39  1  0
  7 40  1  0
  8 41  1  0
  8 42  1  0
 15 43  1  0
 15 44  1  0
 17 45  1  0
 18 46  1  0
 19 47  1  0
 21 48  1  0
 22 49  1  0
 23 50  1  0
 24 51  1  0
 27 52  1  0
 28 53  1  0
 31 54  1  0
M  CHG  1  13  -1
M  END
>  <meeko>  (31) 
{"free_energy": -4.66, "intermolecular_energy": -7.05, "internal_energy": -1.8, "cluster_size": 6, "cluster_id": 125, "rank_in_cluster": 2}

$$$$

     RDKit          3D

 54 57  0  0  0  0  0  0  0  0999 V2000
    6.6160   38.5310    6.3840 C   0  0  0  0  0  0  0  0  0  0  0  0
    6.6510   37.2650    7.2430 C   0  0  0  0  0  0  0  0  0  0  0  0
    7.9970   36.8500    7.4100 O   0  0  0  0  0  0  0  0  0  0  0  0
    8.3190   35.9730    8.3840 C   0  0  0  0  0  0  0  0  0  0  0  0
    8.1690   34.7540    8.2760 O   0  0  0  0  0  0  0  0  0  0  0  0
    8.8400   36.6440    9.4980 N   0  0  0  0  0  0  0  0  0  0  0  0
    8.6500   38.0850    9.6990 C   0  0  0  0  0  0  0  0  0  0  0  0
    9.6330   35.9360   10.5110 C   0  0  0  0  0  0  0  0  0  0  0  0
   10.1610   36.8670   11.5770 C   0  0  0  0  0  0  0  0  0  0  0  0
   11.1080   37.8700   11.4610 C   0  0  0  0  0  0  0  0  0  0  0  0
   11.8520   38.3440   10.2530 C   0  0  0  0  0  0  0  0  0  0  0  0
   12.8580   37.7030    9.8780 O   0  0  0  0  0  0  0  0  0  0  0  0
   11.4860   39.3710    9.6420 O   0  0  0  0  0  1  0  0  0  0  0  0
   11.3310   38.4340   12.7350 N   0  0  0  0  0  0  0  0  0  0  0  0
   12.2350   39.5280   13.1010 C   0  0  0  0  0  0  0  0  0  0  0  0
   13.5290   39.0890   13.7990 C   0  0  0  0  0  0  0  0  0  0  0  0
   13.5680   38.9000   15.2040 C   0  0  0  0  0  0  0  0  0  0  0  0
   14.7510   38.4970   15.8470 C   0  0  0  0  0  0  0  0  0  0  0  0
   15.9190   38.2780   15.0980 C   0  0  0  0  0  0  0  0  0  0  0  0
   15.9060   38.4610   13.7020 C   0  0  0  0  0  0  0  0  0  0  0  0
   17.0870   38.2360   12.9660 C   0  0  0  0  0  0  0  0  0  0  0  0
   17.0980   38.4130   11.5710 C   0  0  0  0  0  0  0  0  0  0  0  0
   15.9240   38.8140   10.9080 C   0  0  0  0  0  0  0  0  0  0  0  0
   14.7410   39.0410   11.6380 C   0  0  0  0  0  0  0  0  0  0  0  0
   14.7130   38.8670   13.0440 C   0  0  0  0  0  0  0  0  0  0  0  0
   10.5260   37.7920   13.6680 C   0  0  0  0  0  0  0  0  0  0  0  0
   10.3800   37.9630   15.0600 C   0  0  0  0  0  0  0  0  0  0  0  0
    9.4680   37.1670   15.7720 C   0  0  0  0  0  0  0  0  0  0  0  0
    8.7040   36.2040   15.0900 C   0  0  0  0  0  0  0  0  0  0  0  0
    7.8190   35.4360   15.7700 F   0  0  0  0  0  0  0  0  0  0  0  0
    8.8570   36.0370   13.7000 C   0  0  0  0  0  0  0  0  0  0  0  0
    9.7740   36.8190   12.9570 C   0  0  0  0  0  0  0  0  0  0  0  0
    6.5915   39.4163    7.0365 H   0  0  0  0  0  0  0  0  0  0  0  0
    7.5135   38.5682    5.7490 H   0  0  0  0  0  0  0  0  0  0  0  0
    5.7179   38.5186    5.7490 H   0  0  0  0  0  0  0  0  0  0  0  0
    6.2066   37.4759    8.2269 H   0  0  0  0  0  0  0  0  0  0  0  0
    6.0777   36.4673    6.7479 H   0  0  0  0  0  0  0  0  0  0  0  0
    8.6211   38.3042   10.7765 H   0  0  0  0  0  0  0  0  0  0  0  0
    9.4837   38.6329    9.2356 H   0  0  0  0  0  0  0  0  0  0  0  0
    7.7028   38.3981    9.2356 H   0  0  0  0  0  0  0  0  0  0  0  0
    8.9988   35.1745   10.9884 H   0  0  0  0  0  0  0  0  0  0  0  0
   10.4961   35.4789   10.0048 H   0  0  0  0  0  0  0  0  0  0  0  0
   12.5082   40.0677   12.1823 H   0  0  0  0  0  0  0  0  0  0  0  0
   11.6892   40.1508   13.8251 H   0  0  0  0  0  0  0  0  0  0  0  0
   12.6590   39.0713   15.7993 H   0  0  0  0  0  0  0  0  0  0  0  0
   14.7622   38.3530   16.9375 H   0  0  0  0  0  0  0  0  0  0  0  0
   16.8445   37.9633   15.6025 H   0  0  0  0  0  0  0  0  0  0  0  0
   18.0040   37.9206   13.4852 H   0  0  0  0  0  0  0  0  0  0  0  0
   18.0218   38.2384   11.0000 H   0  0  0  0  0  0  0  0  0  0  0  0
   15.9298   38.9507    9.8165 H   0  0  0  0  0  0  0  0  0  0  0  0
   13.8287   39.3569   11.1108 H   0  0  0  0  0  0  0  0  0  0  0  0
   10.9798   38.7191   15.5877 H   0  0  0  0  0  0  0  0  0  0  0  0
    9.3520   37.2964   16.8582 H   0  0  0  0  0  0  0  0  0  0  0  0
    8.2500   35.2815   13.1796 H   0  0  0  0  0  0  0  0  0  0  0  0
  1  2  1  0
  2  3  1  0
  3  4  1  0
  4  5  2  0
  4  6  1  0
  6  7  1  0
  6  8  1  0
  8  9  1  0
  9 10  2  0
 10 11  1  0
 11 12  2  0
 11 13  1  0
 10 14  1  0
 14 15  1  0
 15 16  1  0
 16 17  2  0
 17 18  1  0
 18 19  2  0
 19 20  1  0
 20 21  2  0
 21 22  1  0
 22 23  2  0
 23 24  1  0
 24 25  2  0
 14 26  1  0
 26 27  2  0
 27 28  1  0
 28 29  2  0
 29 30  1  0
 29 31  1  0
 31 32  2  0
 32  9  1  0
 25 16  1  0
 32 26  1  0
 25 20  1  0
  1 33  1  0
  1 34  1  0
  1 35  1  0
  2 36  1  0
  2 37  1  0
  7 38  1  0
  7 39  1  0
  7 40  1  0
  8 41  1  0
  8 42  1  0
 15 43  1  0
 15 44  1  0
 17 45  1  0
 18 46  1  0
 19 47  1  0
 21 48  1  0
 22 49  1  0
 23 50  1  0
 24 51  1  0
 27 52  1  0
 28 53  1  0
 31 54  1  0
M  CHG  1  13  -1
M  END
>  <meeko>  (32) 
{"free_energy": -5.3, "intermolecular_energy": -7.69, "internal_energy": -1.59, "cluster_size": 51, "cluster_id": 80, "rank_in_cluster": 15}

$$$$

     RDKit          3D

 54 57  0  0  0  0  0  0  0  0999 V2000
   11.4810   43.5810   15.4270 C   0  0  0  0  0  0  0  0  0  0  0  0
   10.1380   43.4540   14.7030 C   0  0  0  0  0  0  0  0  0  0  0  0
   10.3540   42.9130   13.4100 O   0  0  0  0  0  0  0  0  0  0  0  0
    9.7060   41.7910   13.0290 C   0  0  0  0  0  0  0  0  0  0  0  0
    9.8420   40.7050   13.5960 O   0  0  0  0  0  0  0  0  0  0  0  0
    8.8780   42.0500   11.9290 N   0  0  0  0  0  0  0  0  0  0  0  0
    7.5200   42.5830   12.0830 C   0  0  0  0  0  0  0  0  0  0  0  0
    9.3240   41.7710   10.5580 C   0  0  0  0  0  0  0  0  0  0  0  0
   10.0440   40.4470   10.4480 C   0  0  0  0  0  0  0  0  0  0  0  0
   11.3660   40.1530   10.7320 C   0  0  0  0  0  0  0  0  0  0  0  0
   12.4490   41.0420   11.2580 C   0  0  0  0  0  0  0  0  0  0  0  0
   12.8570   41.9800   10.5400 O   0  0  0  0  0  0  0  0  0  0  0  0
   12.9490   40.8370   12.3850 O   0  0  0  0  0  1  0  0  0  0  0  0
   11.6070   38.7980   10.4190 N   0  0  0  0  0  0  0  0  0  0  0  0
   12.8520   38.0390   10.5620 C   0  0  0  0  0  0  0  0  0  0  0  0
   14.1000   38.7330    9.9990 C   0  0  0  0  0  0  0  0  0  0  0  0
   14.0700   39.3630    8.7300 C   0  0  0  0  0  0  0  0  0  0  0  0
   15.2100   40.0000    8.2110 C   0  0  0  0  0  0  0  0  0  0  0  0
   16.4030   40.0180    8.9510 C   0  0  0  0  0  0  0  0  0  0  0  0
   16.4580   39.3980   10.2140 C   0  0  0  0  0  0  0  0  0  0  0  0
   17.6650   39.4250   10.9430 C   0  0  0  0  0  0  0  0  0  0  0  0
   17.7440   38.8120   12.2060 C   0  0  0  0  0  0  0  0  0  0  0  0
   16.6140   38.1700   12.7430 C   0  0  0  0  0  0  0  0  0  0  0  0
   15.4060   38.1390   12.0200 C   0  0  0  0  0  0  0  0  0  0  0  0
   15.3090   38.7520   10.7460 C   0  0  0  0  0  0  0  0  0  0  0  0
   10.4380   38.2250    9.9340 C   0  0  0  0  0  0  0  0  0  0  0  0
   10.1510   36.9240    9.4740 C   0  0  0  0  0  0  0  0  0  0  0  0
    8.8530   36.6050    9.0390 C   0  0  0  0  0  0  0  0  0  0  0  0
    7.8490   37.5880    9.0660 C   0  0  0  0  0  0  0  0  0  0  0  0
    6.5950   37.2860    8.6510 F   0  0  0  0  0  0  0  0  0  0  0  0
    8.1450   38.8870    9.5230 C   0  0  0  0  0  0  0  0  0  0  0  0
    9.4440   39.2390    9.9620 C   0  0  0  0  0  0  0  0  0  0  0  0
   11.3144   43.5652   16.5142 H   0  0  0  0  0  0  0  0  0  0  0  0
   12.1313   42.7403   15.1435 H   0  0  0  0  0  0  0  0  0  0  0  0
   11.9622   44.5287   15.1435 H   0  0  0  0  0  0  0  0  0  0  0  0
    9.4739   42.7884   15.2739 H   0  0  0  0  0  0  0  0  0  0  0  0
    9.6706   44.4459   14.6150 H   0  0  0  0  0  0  0  0  0  0  0  0
    7.2819   42.6764   13.1529 H   0  0  0  0  0  0  0  0  0  0  0  0
    7.4580   43.5722   11.6058 H   0  0  0  0  0  0  0  0  0  0  0  0
    6.8018   41.9001   11.6058 H   0  0  0  0  0  0  0  0  0  0  0  0
    8.4450   41.7518    9.8970 H   0  0  0  0  0  0  0  0  0  0  0  0
   10.0290   42.5631   10.2655 H   0  0  0  0  0  0  0  0  0  0  0  0
   13.0181   37.8537   11.6335 H   0  0  0  0  0  0  0  0  0  0  0  0
   12.7206   37.1174    9.9761 H   0  0  0  0  0  0  0  0  0  0  0  0
   13.1402   39.3532    8.1423 H   0  0  0  0  0  0  0  0  0  0  0  0
   15.1677   40.4848    7.2245 H   0  0  0  0  0  0  0  0  0  0  0  0
   17.2950   40.5166    8.5440 H   0  0  0  0  0  0  0  0  0  0  0  0
   18.5482   39.9276   10.5219 H   0  0  0  0  0  0  0  0  0  0  0  0
   18.6868   38.8346   12.7722 H   0  0  0  0  0  0  0  0  0  0  0  0
   16.6739   37.6904   13.7311 H   0  0  0  0  0  0  0  0  0  0  0  0
   14.5282   37.6335   12.4488 H   0  0  0  0  0  0  0  0  0  0  0  0
   10.9416   36.1594    9.4554 H   0  0  0  0  0  0  0  0  0  0  0  0
    8.6242   35.5910    8.6792 H   0  0  0  0  0  0  0  0  0  0  0  0
    7.3484   39.6454    9.5392 H   0  0  0  0  0  0  0  0  0  0  0  0
  1  2  1  0
  2  3  1  0
  3  4  1  0
  4  5  2  0
  4  6  1  0
  6  7  1  0
  6  8  1  0
  8  9  1  0
  9 10  2  0
 10 11  1  0
 11 12  2  0
 11 13  1  0
 10 14  1  0
 14 15  1  0
 15 16  1  0
 16 17  2  0
 17 18  1  0
 18 19  2  0
 19 20  1  0
 20 21  2  0
 21 22  1  0
 22 23  2  0
 23 24  1  0
 24 25  2  0
 14 26  1  0
 26 27  2  0
 27 28  1  0
 28 29  2  0
 29 30  1  0
 29 31  1  0
 31 32  2  0
 32  9  1  0
 25 16  1  0
 32 26  1  0
 25 20  1  0
  1 33  1  0
  1 34  1  0
  1 35  1  0
  2 36  1  0
  2 37  1  0
  7 38  1  0
  7 39  1  0
  7 40  1  0
  8 41  1  0
  8 42  1  0
 15 43  1  0
 15 44  1  0
 17 45  1  0
 18 46  1  0
 19 47  1  0
 21 48  1  0
 22 49  1  0
 23 50  1  0
 24 51  1  0
 27 52  1  0
 28 53  1  0
 31 54  1  0
M  CHG  1  13  -1
M  END
>  <meeko>  (33) 
{"free_energy": -4.63, "intermolecular_energy": -7.02, "internal_energy": -1.89, "cluster_size": 15, "cluster_id": 199, "rank_in_cluster": 3}

$$$$

     RDKit          3D

 54 57  0  0  0  0  0  0  0  0999 V2000
    6.8790   35.2440    6.9270 C   0  0  0  0  0  0  0  0  0  0  0  0
    8.3240   34.7870    7.1430 C   0  0  0  0  0  0  0  0  0  0  0  0
    8.7200   35.0990    8.4690 O   0  0  0  0  0  0  0  0  0  0  0  0
    8.8930   36.3860    8.8380 C   0  0  0  0  0  0  0  0  0  0  0  0
    8.4350   37.3400    8.2060 O   0  0  0  0  0  0  0  0  0  0  0  0
    9.6440   36.4620   10.0180 N   0  0  0  0  0  0  0  0  0  0  0  0
   11.0690   36.8150   10.0140 C   0  0  0  0  0  0  0  0  0  0  0  0
    9.0440   36.1620   11.3240 C   0  0  0  0  0  0  0  0  0  0  0  0
    9.3480   37.2260   12.3520 C   0  0  0  0  0  0  0  0  0  0  0  0
    9.5300   37.0870   13.7160 C   0  0  0  0  0  0  0  0  0  0  0  0
    9.5150   35.8500   14.5590 C   0  0  0  0  0  0  0  0  0  0  0  0
   10.5890   35.4510   15.0590 O   0  0  0  0  0  0  0  0  0  0  0  0
    8.4520   35.2180   14.7440 O   0  0  0  0  0  1  0  0  0  0  0  0
    9.7280   38.3650   14.2820 N   0  0  0  0  0  0  0  0  0  0  0  0
    9.9710   38.7120   15.6850 C   0  0  0  0  0  0  0  0  0  0  0  0
   11.2360   38.0910   16.2930 C   0  0  0  0  0  0  0  0  0  0  0  0
   11.1480   37.1750   17.3710 C   0  0  0  0  0  0  0  0  0  0  0  0
   12.3040   36.6040   17.9310 C   0  0  0  0  0  0  0  0  0  0  0  0
   13.5700   36.9400   17.4250 C   0  0  0  0  0  0  0  0  0  0  0  0
   13.6830   37.8480   16.3560 C   0  0  0  0  0  0  0  0  0  0  0  0
   14.9620   38.1740   15.8600 C   0  0  0  0  0  0  0  0  0  0  0  0
   15.1000   39.0800   14.7930 C   0  0  0  0  0  0  0  0  0  0  0  0
   13.9550   39.6610   14.2180 C   0  0  0  0  0  0  0  0  0  0  0  0
   12.6750   39.3400   14.7080 C   0  0  0  0  0  0  0  0  0  0  0  0
   12.5190   38.4300   15.7830 C   0  0  0  0  0  0  0  0  0  0  0  0
    9.6720   39.3230   13.2780 C   0  0  0  0  0  0  0  0  0  0  0  0
    9.7910   40.7270   13.3120 C   0  0  0  0  0  0  0  0  0  0  0  0
    9.7010   41.4670   12.1210 C   0  0  0  0  0  0  0  0  0  0  0  0
    9.4940   40.8010   10.9010 C   0  0  0  0  0  0  0  0  0  0  0  0
    9.4100   41.5080    9.7490 F   0  0  0  0  0  0  0  0  0  0  0  0
    9.3720   39.3980   10.8750 C   0  0  0  0  0  0  0  0  0  0  0  0
    9.4520   38.6260   12.0600 C   0  0  0  0  0  0  0  0  0  0  0  0
    6.3934   35.3976    7.9020 H   0  0  0  0  0  0  0  0  0  0  0  0
    6.8735   36.1877    6.3619 H   0  0  0  0  0  0  0  0  0  0  0  0
    6.3318   34.4751    6.3619 H   0  0  0  0  0  0  0  0  0  0  0  0
    8.3937   33.7007    6.9845 H   0  0  0  0  0  0  0  0  0  0  0  0
    8.9844   35.3020    6.4298 H   0  0  0  0  0  0  0  0  0  0  0  0
   11.4276   36.9038   11.0501 H   0  0  0  0  0  0  0  0  0  0  0  0
   11.6395   36.0310    9.4945 H   0  0  0  0  0  0  0  0  0  0  0  0
   11.2076   37.7746    9.4945 H   0  0  0  0  0  0  0  0  0  0  0  0
    7.9531   36.0878   11.2036 H   0  0  0  0  0  0  0  0  0  0  0  0
    9.4737   35.2150   11.6824 H   0  0  0  0  0  0  0  0  0  0  0  0
   10.0589   39.8062   15.7564 H   0  0  0  0  0  0  0  0  0  0  0  0
    9.1225   38.3060   16.2553 H   0  0  0  0  0  0  0  0  0  0  0  0
   10.1607   36.9070   17.7753 H   0  0  0  0  0  0  0  0  0  0  0  0
   12.2168   35.8935   18.7662 H   0  0  0  0  0  0  0  0  0  0  0  0
   14.4739   36.4931   17.8645 H   0  0  0  0  0  0  0  0  0  0  0  0
   15.8561   37.7176   16.3097 H   0  0  0  0  0  0  0  0  0  0  0  0
   16.0994   39.3333   14.4096 H   0  0  0  0  0  0  0  0  0  0  0  0
   14.0603   40.3687   13.3825 H   0  0  0  0  0  0  0  0  0  0  0  0
   11.7864   39.8005   14.2516 H   0  0  0  0  0  0  0  0  0  0  0  0
    9.9541   41.2428   14.2698 H   0  0  0  0  0  0  0  0  0  0  0  0
    9.7922   42.5630   12.1435 H   0  0  0  0  0  0  0  0  0  0  0  0
    9.2109   38.8902    9.9126 H   0  0  0  0  0  0  0  0  0  0  0  0
  1  2  1  0
  2  3  1  0
  3  4  1  0
  4  5  2  0
  4  6  1  0
  6  7  1  0
  6  8  1  0
  8  9  1  0
  9 10  2  0
 10 11  1  0
 11 12  2  0
 11 13  1  0
 10 14  1  0
 14 15  1  0
 15 16  1  0
 16 17  2  0
 17 18  1  0
 18 19  2  0
 19 20  1  0
 20 21  2  0
 21 22  1  0
 22 23  2  0
 23 24  1  0
 24 25  2  0
 14 26  1  0
 26 27  2  0
 27 28  1  0
 28 29  2  0
 29 30  1  0
 29 31  1  0
 31 32  2  0
 32  9  1  0
 25 16  1  0
 32 26  1  0
 25 20  1  0
  1 33  1  0
  1 34  1  0
  1 35  1  0
  2 36  1  0
  2 37  1  0
  7 38  1  0
  7 39  1  0
  7 40  1  0
  8 41  1  0
  8 42  1  0
 15 43  1  0
 15 44  1  0
 17 45  1  0
 18 46  1  0
 19 47  1  0
 21 48  1  0
 22 49  1  0
 23 50  1  0
 24 51  1  0
 27 52  1  0
 28 53  1  0
 31 54  1  0
M  CHG  1  13  -1
M  END
>  <meeko>  (34) 
{"free_energy": -4.88, "intermolecular_energy": -7.26, "internal_energy": -1.87, "cluster_size": 47, "cluster_id": 38, "rank_in_cluster": 36}

$$$$

     RDKit          3D

 54 57  0  0  0  0  0  0  0  0999 V2000
   11.4700   33.2010   15.8470 C   0  0  0  0  0  0  0  0  0  0  0  0
   11.6270   34.7190   15.7310 C   0  0  0  0  0  0  0  0  0  0  0  0
   10.7150   35.3520   16.6140 O   0  0  0  0  0  0  0  0  0  0  0  0
    9.4560   34.8800   16.7390 C   0  0  0  0  0  0  0  0  0  0  0  0
    9.0290   34.3540   17.7680 O   0  0  0  0  0  0  0  0  0  0  0  0
    8.7350   35.0830   15.5550 N   0  0  0  0  0  0  0  0  0  0  0  0
    8.5300   34.0120   14.5740 C   0  0  0  0  0  0  0  0  0  0  0  0
    8.1690   36.3970   15.2230 C   0  0  0  0  0  0  0  0  0  0  0  0
    9.0120   37.1440   14.2160 C   0  0  0  0  0  0  0  0  0  0  0  0
    9.8190   38.2510   14.4130 C   0  0  0  0  0  0  0  0  0  0  0  0
   10.1190   39.0010   15.6720 C   0  0  0  0  0  0  0  0  0  0  0  0
    9.6360   40.1450   15.8190 O   0  0  0  0  0  0  0  0  0  0  0  0
   10.8540   38.5020   16.5510 O   0  0  0  0  0  1  0  0  0  0  0  0
   10.3620   38.6440   13.1710 N   0  0  0  0  0  0  0  0  0  0  0  0
   11.2780   39.7520   12.8870 C   0  0  0  0  0  0  0  0  0  0  0  0
   12.7010   39.3300   12.5000 C   0  0  0  0  0  0  0  0  0  0  0  0
   13.6060   38.8460   13.4770 C   0  0  0  0  0  0  0  0  0  0  0  0
   14.9110   38.4580   13.1270 C   0  0  0  0  0  0  0  0  0  0  0  0
   15.3360   38.5480   11.7920 C   0  0  0  0  0  0  0  0  0  0  0  0
   14.4560   39.0270   10.8030 C   0  0  0  0  0  0  0  0  0  0  0  0
   14.9000   39.1110    9.4670 C   0  0  0  0  0  0  0  0  0  0  0  0
   14.0380   39.5870    8.4620 C   0  0  0  0  0  0  0  0  0  0  0  0
   12.7290   39.9790    8.7920 C   0  0  0  0  0  0  0  0  0  0  0  0
   12.2800   39.8980   10.1240 C   0  0  0  0  0  0  0  0  0  0  0  0
   13.1340   39.4210   11.1490 C   0  0  0  0  0  0  0  0  0  0  0  0
    9.9010   37.7880   12.1790 C   0  0  0  0  0  0  0  0  0  0  0  0
   10.1290   37.7530   10.7870 C   0  0  0  0  0  0  0  0  0  0  0  0
    9.5310   36.7510   10.0050 C   0  0  0  0  0  0  0  0  0  0  0  0
    8.7110   35.7870   10.6150 C   0  0  0  0  0  0  0  0  0  0  0  0
    8.1350   34.8160    9.8660 F   0  0  0  0  0  0  0  0  0  0  0  0
    8.4850   35.8300   12.0040 C   0  0  0  0  0  0  0  0  0  0  0  0
    9.0680   36.8320   12.8180 C   0  0  0  0  0  0  0  0  0  0  0  0
   11.4405   32.9155   16.9089 H   0  0  0  0  0  0  0  0  0  0  0  0
   10.5350   32.8906   15.3577 H   0  0  0  0  0  0  0  0  0  0  0  0
   12.3217   32.7058   15.3577 H   0  0  0  0  0  0  0  0  0  0  0  0
   12.6553   35.0038   15.9982 H   0  0  0  0  0  0  0  0  0  0  0  0
   11.4191   35.0337   14.6977 H   0  0  0  0  0  0  0  0  0  0  0  0
    8.3484   33.0630   15.0998 H   0  0  0  0  0  0  0  0  0  0  0  0
    7.6618   34.2537   13.9433 H   0  0  0  0  0  0  0  0  0  0  0  0
    9.4261   33.9160   13.9433 H   0  0  0  0  0  0  0  0  0  0  0  0
    7.1618   36.2534   14.8047 H   0  0  0  0  0  0  0  0  0  0  0  0
    8.1378   36.9941   16.1463 H   0  0  0  0  0  0  0  0  0  0  0  0
   10.8578   40.3386   12.0568 H   0  0  0  0  0  0  0  0  0  0  0  0
   11.3693   40.3244   13.8219 H   0  0  0  0  0  0  0  0  0  0  0  0
   13.2823   38.7727   14.5257 H   0  0  0  0  0  0  0  0  0  0  0  0
   15.5993   38.0838   13.8992 H   0  0  0  0  0  0  0  0  0  0  0  0
   16.3572   38.2441   11.5186 H   0  0  0  0  0  0  0  0  0  0  0  0
   15.9242   38.8032    9.2097 H   0  0  0  0  0  0  0  0  0  0  0  0
   14.3874   39.6522    7.4210 H   0  0  0  0  0  0  0  0  0  0  0  0
   12.0534   40.3501    8.0072 H   0  0  0  0  0  0  0  0  0  0  0  0
   11.2543   40.2087   10.3717 H   0  0  0  0  0  0  0  0  0  0  0  0
   10.7738   38.5090   10.3151 H   0  0  0  0  0  0  0  0  0  0  0  0
    9.7041   36.7212    8.9191 H   0  0  0  0  0  0  0  0  0  0  0  0
    7.8411   35.0682   12.4676 H   0  0  0  0  0  0  0  0  0  0  0  0
  1  2  1  0
  2  3  1  0
  3  4  1  0
  4  5  2  0
  4  6  1  0
  6  7  1  0
  6  8  1  0
  8  9  1  0
  9 10  2  0
 10 11  1  0
 11 12  2  0
 11 13  1  0
 10 14  1  0
 14 15  1  0
 15 16  1  0
 16 17  2  0
 17 18  1  0
 18 19  2  0
 19 20  1  0
 20 21  2  0
 21 22  1  0
 22 23  2  0
 23 24  1  0
 24 25  2  0
 14 26  1  0
 26 27  2  0
 27 28  1  0
 28 29  2  0
 29 30  1  0
 29 31  1  0
 31 32  2  0
 32  9  1  0
 25 16  1  0
 32 26  1  0
 25 20  1  0
  1 33  1  0
  1 34  1  0
  1 35  1  0
  2 36  1  0
  2 37  1  0
  7 38  1  0
  7 39  1  0
  7 40  1  0
  8 41  1  0
  8 42  1  0
 15 43  1  0
 15 44  1  0
 17 45  1  0
 18 46  1  0
 19 47  1  0
 21 48  1  0
 22 49  1  0
 23 50  1  0
 24 51  1  0
 27 52  1  0
 28 53  1  0
 31 54  1  0
M  CHG  1  13  -1
M  END
>  <meeko>  (35) 
{"free_energy": -5.4, "intermolecular_energy": -7.78, "internal_energy": -1.9, "cluster_size": 251, "cluster_id": 26, "rank_in_cluster": 175}

$$$$

     RDKit          3D

 54 57  0  0  0  0  0  0  0  0999 V2000
    7.4650   38.4650    9.8500 C   0  0  0  0  0  0  0  0  0  0  0  0
    8.7450   39.1010    9.3030 C   0  0  0  0  0  0  0  0  0  0  0  0
    9.7090   38.0850    9.0710 O   0  0  0  0  0  0  0  0  0  0  0  0
    9.5400   36.8580    9.6080 C   0  0  0  0  0  0  0  0  0  0  0  0
    8.8350   35.9860    9.0960 O   0  0  0  0  0  0  0  0  0  0  0  0
   10.2730   36.7350   10.7950 N   0  0  0  0  0  0  0  0  0  0  0  0
   11.0930   35.5530   11.0870 C   0  0  0  0  0  0  0  0  0  0  0  0
   10.2340   37.7800   11.8260 C   0  0  0  0  0  0  0  0  0  0  0  0
   10.4510   37.2230   13.2140 C   0  0  0  0  0  0  0  0  0  0  0  0
    9.7690   36.2040   13.8550 C   0  0  0  0  0  0  0  0  0  0  0  0
    8.6530   35.3410   13.3550 C   0  0  0  0  0  0  0  0  0  0  0  0
    8.1380   35.6070   12.2480 O   0  0  0  0  0  0  0  0  0  0  0  0
    8.2320   34.3850   14.0420 O   0  0  0  0  0  1  0  0  0  0  0  0
   10.2770   36.0720   15.1650 N   0  0  0  0  0  0  0  0  0  0  0  0
    9.8730   35.1230   16.2060 C   0  0  0  0  0  0  0  0  0  0  0  0
    8.6530   35.5520   17.0320 C   0  0  0  0  0  0  0  0  0  0  0  0
    7.3390   35.2390   16.6020 C   0  0  0  0  0  0  0  0  0  0  0  0
    6.2190   35.6300   17.3550 C   0  0  0  0  0  0  0  0  0  0  0  0
    6.3910   36.3440   18.5520 C   0  0  0  0  0  0  0  0  0  0  0  0
    7.6860   36.6690   18.9990 C   0  0  0  0  0  0  0  0  0  0  0  0
    7.8400   37.3870   20.2030 C   0  0  0  0  0  0  0  0  0  0  0  0
    9.1240   37.7220   20.6680 C   0  0  0  0  0  0  0  0  0  0  0  0
   10.2580   37.3390   19.9300 C   0  0  0  0  0  0  0  0  0  0  0  0
   10.1110   36.6230   18.7270 C   0  0  0  0  0  0  0  0  0  0  0  0
    8.8250   36.2760   18.2430 C   0  0  0  0  0  0  0  0  0  0  0  0
   11.2840   37.0070   15.3620 C   0  0  0  0  0  0  0  0  0  0  0  0
   12.0910   37.2980   16.4820 C   0  0  0  0  0  0  0  0  0  0  0  0
   13.0600   38.3120   16.4030 C   0  0  0  0  0  0  0  0  0  0  0  0
   13.2200   39.0310   15.2060 C   0  0  0  0  0  0  0  0  0  0  0  0
   14.1550   40.0070   15.1220 F   0  0  0  0  0  0  0  0  0  0  0  0
   12.4080   38.7370   14.0930 C   0  0  0  0  0  0  0  0  0  0  0  0
   11.4190   37.7260   14.1440 C   0  0  0  0  0  0  0  0  0  0  0  0
    7.4903   38.4776   10.9496 H   0  0  0  0  0  0  0  0  0  0  0  0
    6.5927   39.0345    9.4968 H   0  0  0  0  0  0  0  0  0  0  0  0
    7.3920   37.4258    9.4968 H   0  0  0  0  0  0  0  0  0  0  0  0
    8.5234   39.6203    8.3590 H   0  0  0  0  0  0  0  0  0  0  0  0
    9.1388   39.8245   10.0320 H   0  0  0  0  0  0  0  0  0  0  0  0
   11.1802   35.4273   12.1763 H   0  0  0  0  0  0  0  0  0  0  0  0
   10.6187   34.6611   10.6518 H   0  0  0  0  0  0  0  0  0  0  0  0
   12.0946   35.6849   10.6518 H   0  0  0  0  0  0  0  0  0  0  0  0
   11.0224   38.5169   11.6131 H   0  0  0  0  0  0  0  0  0  0  0  0
    9.2359   38.2417   11.8003 H   0  0  0  0  0  0  0  0  0  0  0  0
    9.6377   34.1639   15.7215 H   0  0  0  0  0  0  0  0  0  0  0  0
   10.7158   35.0595   16.9100 H   0  0  0  0  0  0  0  0  0  0  0  0
    7.1940   34.6817   15.6648 H   0  0  0  0  0  0  0  0  0  0  0  0
    5.2068   35.3767   17.0067 H   0  0  0  0  0  0  0  0  0  0  0  0
    5.5135   36.6495   19.1407 H   0  0  0  0  0  0  0  0  0  0  0  0
    6.9527   37.6860   20.7803 H   0  0  0  0  0  0  0  0  0  0  0  0
    9.2411   38.2825   21.6072 H   0  0  0  0  0  0  0  0  0  0  0  0
   11.2628   37.5997   20.2938 H   0  0  0  0  0  0  0  0  0  0  0  0
   11.0043   36.3295   18.1562 H   0  0  0  0  0  0  0  0  0  0  0  0
   11.9616   36.7316   17.4160 H   0  0  0  0  0  0  0  0  0  0  0  0
   13.6908   38.5423   17.2742 H   0  0  0  0  0  0  0  0  0  0  0  0
   12.5459   39.3068   13.1622 H   0  0  0  0  0  0  0  0  0  0  0  0
  1  2  1  0
  2  3  1  0
  3  4  1  0
  4  5  2  0
  4  6  1  0
  6  7  1  0
  6  8  1  0
  8  9  1  0
  9 10  2  0
 10 11  1  0
 11 12  2  0
 11 13  1  0
 10 14  1  0
 14 15  1  0
 15 16  1  0
 16 17  2  0
 17 18  1  0
 18 19  2  0
 19 20  1  0
 20 21  2  0
 21 22  1  0
 22 23  2  0
 23 24  1  0
 24 25  2  0
 14 26  1  0
 26 27  2  0
 27 28  1  0
 28 29  2  0
 29 30  1  0
 29 31  1  0
 31 32  2  0
 32  9  1  0
 25 16  1  0
 32 26  1  0
 25 20  1  0
  1 33  1  0
  1 34  1  0
  1 35  1  0
  2 36  1  0
  2 37  1  0
  7 38  1  0
  7 39  1  0
  7 40  1  0
  8 41  1  0
  8 42  1  0
 15 43  1  0
 15 44  1  0
 17 45  1  0
 18 46  1  0
 19 47  1  0
 21 48  1  0
 22 49  1  0
 23 50  1  0
 24 51  1  0
 27 52  1  0
 28 53  1  0
 31 54  1  0
M  CHG  1  13  -1
M  END
>  <meeko>  (36) 
{"free_energy": -5.86, "intermolecular_energy": -8.24, "internal_energy": -1.62, "cluster_size": 136, "cluster_id": 23, "rank_in_cluster": 58}

$$$$

     RDKit          3D

 54 57  0  0  0  0  0  0  0  0999 V2000
   13.4630   38.6630   11.8380 C   0  0  0  0  0  0  0  0  0  0  0  0
   12.7240   38.5980   10.4990 C   0  0  0  0  0  0  0  0  0  0  0  0
   11.3860   38.1860   10.7240 O   0  0  0  0  0  0  0  0  0  0  0  0
   11.0500   36.8830   10.6060 C   0  0  0  0  0  0  0  0  0  0  0  0
   11.8790   35.9760   10.5060 O   0  0  0  0  0  0  0  0  0  0  0  0
    9.6580   36.7310   10.6200 N   0  0  0  0  0  0  0  0  0  0  0  0
    8.9430   35.9940    9.5720 C   0  0  0  0  0  0  0  0  0  0  0  0
    8.8370   37.3310   11.6800 C   0  0  0  0  0  0  0  0  0  0  0  0
    9.5780   37.4290   12.9920 C   0  0  0  0  0  0  0  0  0  0  0  0
    9.7900   36.4460   13.9430 C   0  0  0  0  0  0  0  0  0  0  0  0
    9.3820   35.0060   13.9340 C   0  0  0  0  0  0  0  0  0  0  0  0
    8.1910   34.7210   13.6850 O   0  0  0  0  0  0  0  0  0  0  0  0
   10.2130   34.1070   14.1880 O   0  0  0  0  0  1  0  0  0  0  0  0
   10.4790   37.0120   15.0360 N   0  0  0  0  0  0  0  0  0  0  0  0
   10.9280   36.3570   16.2680 C   0  0  0  0  0  0  0  0  0  0  0  0
   10.1530   36.7560   17.5310 C   0  0  0  0  0  0  0  0  0  0  0  0
   10.7130   37.6550   18.4720 C   0  0  0  0  0  0  0  0  0  0  0  0
   10.0070   38.0240   19.6300 C   0  0  0  0  0  0  0  0  0  0  0  0
    8.7270   37.4990   19.8690 C   0  0  0  0  0  0  0  0  0  0  0  0
    8.1490   36.6030   18.9490 C   0  0  0  0  0  0  0  0  0  0  0  0
    6.8630   36.0850   19.2060 C   0  0  0  0  0  0  0  0  0  0  0  0
    6.2670   35.1880   18.3010 C   0  0  0  0  0  0  0  0  0  0  0  0
    6.9570   34.8080   17.1370 C   0  0  0  0  0  0  0  0  0  0  0  0
    8.2420   35.3210   16.8750 C   0  0  0  0  0  0  0  0  0  0  0  0
    8.8570   36.2250   17.7750 C   0  0  0  0  0  0  0  0  0  0  0  0
   10.7090   38.3590   14.7850 C   0  0  0  0  0  0  0  0  0  0  0  0
   11.3350   39.3640   15.5500 C   0  0  0  0  0  0  0  0  0  0  0  0
   11.4400   40.6690   15.0410 C   0  0  0  0  0  0  0  0  0  0  0  0
   10.9210   40.9640   13.7680 C   0  0  0  0  0  0  0  0  0  0  0  0
   11.0220   42.2190   13.2700 F   0  0  0  0  0  0  0  0  0  0  0  0
   10.2930   39.9550   13.0120 C   0  0  0  0  0  0  0  0  0  0  0  0
   10.1660   38.6330   13.5010 C   0  0  0  0  0  0  0  0  0  0  0  0
   12.7363   38.5991   12.6613 H   0  0  0  0  0  0  0  0  0  0  0  0
   14.1705   37.8236   11.9074 H   0  0  0  0  0  0  0  0  0  0  0  0
   14.0132   39.6130   11.9074 H   0  0  0  0  0  0  0  0  0  0  0  0
   12.7285   39.5919   10.0277 H   0  0  0  0  0  0  0  0  0  0  0  0
   13.2253   37.8785    9.8349 H   0  0  0  0  0  0  0  0  0  0  0  0
    8.2485   35.2781   10.0359 H   0  0  0  0  0  0  0  0  0  0  0  0
    8.3776   36.7010    8.9472 H   0  0  0  0  0  0  0  0  0  0  0  0
    9.6669   35.4503    8.9472 H   0  0  0  0  0  0  0  0  0  0  0  0
    8.5378   38.3420   11.3663 H   0  0  0  0  0  0  0  0  0  0  0  0
    7.9616   36.6832   11.8353 H   0  0  0  0  0  0  0  0  0  0  0  0
   10.8263   35.2700   16.1337 H   0  0  0  0  0  0  0  0  0  0  0  0
   11.9671   36.6804   16.4284 H   0  0  0  0  0  0  0  0  0  0  0  0
   11.7157   38.0706   18.2936 H   0  0  0  0  0  0  0  0  0  0  0  0
   10.4574   38.7241   20.3490 H   0  0  0  0  0  0  0  0  0  0  0  0
    8.1751   37.7878   20.7757 H   0  0  0  0  0  0  0  0  0  0  0  0
    6.3240   36.3833   20.1173 H   0  0  0  0  0  0  0  0  0  0  0  0
    5.2637   34.7851   18.5038 H   0  0  0  0  0  0  0  0  0  0  0  0
    6.4916   34.1074   16.4281 H   0  0  0  0  0  0  0  0  0  0  0  0
    8.7737   35.0163   15.9615 H   0  0  0  0  0  0  0  0  0  0  0  0
   11.7408   39.1266   16.5445 H   0  0  0  0  0  0  0  0  0  0  0  0
   11.9260   41.4565   15.6356 H   0  0  0  0  0  0  0  0  0  0  0  0
    9.8916   40.2004   12.0177 H   0  0  0  0  0  0  0  0  0  0  0  0
  1  2  1  0
  2  3  1  0
  3  4  1  0
  4  5  2  0
  4  6  1  0
  6  7  1  0
  6  8  1  0
  8  9  1  0
  9 10  2  0
 10 11  1  0
 11 12  2  0
 11 13  1  0
 10 14  1  0
 14 15  1  0
 15 16  1  0
 16 17  2  0
 17 18  1  0
 18 19  2  0
 19 20  1  0
 20 21  2  0
 21 22  1  0
 22 23  2  0
 23 24  1  0
 24 25  2  0
 14 26  1  0
 26 27  2  0
 27 28  1  0
 28 29  2  0
 29 30  1  0
 29 31  1  0
 31 32  2  0
 32  9  1  0
 25 16  1  0
 32 26  1  0
 25 20  1  0
  1 33  1  0
  1 34  1  0
  1 35  1  0
  2 36  1  0
  2 37  1  0
  7 38  1  0
  7 39  1  0
  7 40  1  0
  8 41  1  0
  8 42  1  0
 15 43  1  0
 15 44  1  0
 17 45  1  0
 18 46  1  0
 19 47  1  0
 21 48  1  0
 22 49  1  0
 23 50  1  0
 24 51  1  0
 27 52  1  0
 28 53  1  0
 31 54  1  0
M  CHG  1  13  -1
M  END
>  <meeko>  (37) 
{"free_energy": -5.25, "intermolecular_energy": -7.63, "internal_energy": -2.39, "cluster_size": 136, "cluster_id": 23, "rank_in_cluster": 104}

$$$$

     RDKit          3D

 54 57  0  0  0  0  0  0  0  0999 V2000
    9.6160   33.2460   17.2920 C   0  0  0  0  0  0  0  0  0  0  0  0
    8.8840   34.5600   17.5750 C   0  0  0  0  0  0  0  0  0  0  0  0
    9.2420   35.5150   16.5890 O   0  0  0  0  0  0  0  0  0  0  0  0
    8.4310   35.7330   15.5320 C   0  0  0  0  0  0  0  0  0  0  0  0
    7.3460   36.3110   15.6190 O   0  0  0  0  0  0  0  0  0  0  0  0
    9.0020   35.2220   14.3600 N   0  0  0  0  0  0  0  0  0  0  0  0
   10.1900   34.3610   14.3820 C   0  0  0  0  0  0  0  0  0  0  0  0
    8.4510   35.5490   13.0380 C   0  0  0  0  0  0  0  0  0  0  0  0
    9.1150   36.7610   12.4260 C   0  0  0  0  0  0  0  0  0  0  0  0
    9.9920   37.6570   13.0110 C   0  0  0  0  0  0  0  0  0  0  0  0
   10.5630   37.6680   14.3940 C   0  0  0  0  0  0  0  0  0  0  0  0
   11.5430   36.9350   14.6450 O   0  0  0  0  0  0  0  0  0  0  0  0
   10.0560   38.3830   15.2860 O   0  0  0  0  0  1  0  0  0  0  0  0
   10.3010   38.6670   12.0750 N   0  0  0  0  0  0  0  0  0  0  0  0
   11.1920   39.8190   12.2400 C   0  0  0  0  0  0  0  0  0  0  0  0
   12.6130   39.6180   11.6950 C   0  0  0  0  0  0  0  0  0  0  0  0
   12.8740   39.6920   10.3040 C   0  0  0  0  0  0  0  0  0  0  0  0
   14.1740   39.5100    9.8010 C   0  0  0  0  0  0  0  0  0  0  0  0
   15.2370   39.2470   10.6800 C   0  0  0  0  0  0  0  0  0  0  0  0
   15.0020   39.1660   12.0660 C   0  0  0  0  0  0  0  0  0  0  0  0
   16.0820   38.9010   12.9340 C   0  0  0  0  0  0  0  0  0  0  0  0
   15.8710   38.8160   14.3210 C   0  0  0  0  0  0  0  0  0  0  0  0
   14.5780   38.9970   14.8450 C   0  0  0  0  0  0  0  0  0  0  0  0
   13.4960   39.2620   13.9830 C   0  0  0  0  0  0  0  0  0  0  0  0
   13.6910   39.3510   12.5830 C   0  0  0  0  0  0  0  0  0  0  0  0
    9.6200   38.4170   10.8910 C   0  0  0  0  0  0  0  0  0  0  0  0
    9.5720   39.1190    9.6690 C   0  0  0  0  0  0  0  0  0  0  0  0
    8.7920   38.6280    8.6090 C   0  0  0  0  0  0  0  0  0  0  0  0
    8.0630   37.4370    8.7740 C   0  0  0  0  0  0  0  0  0  0  0  0
    7.3120   36.9570    7.7540 F   0  0  0  0  0  0  0  0  0  0  0  0
    8.1130   36.7440    9.9980 C   0  0  0  0  0  0  0  0  0  0  0  0
    8.8850   37.2180   11.0870 C   0  0  0  0  0  0  0  0  0  0  0  0
    9.8847   32.7637   18.2434 H   0  0  0  0  0  0  0  0  0  0  0  0
    8.9601   32.5779   16.7146 H   0  0  0  0  0  0  0  0  0  0  0  0
   10.5293   33.4521   16.7146 H   0  0  0  0  0  0  0  0  0  0  0  0
    7.7977   34.3898   17.5451 H   0  0  0  0  0  0  0  0  0  0  0  0
    9.1660   34.9332   18.5706 H   0  0  0  0  0  0  0  0  0  0  0  0
   10.4743   34.1550   15.4245 H   0  0  0  0  0  0  0  0  0  0  0  0
    9.9661   33.4141   13.8690 H   0  0  0  0  0  0  0  0  0  0  0  0
   11.0202   34.8685   13.8690 H   0  0  0  0  0  0  0  0  0  0  0  0
    8.5999   34.6882   12.3695 H   0  0  0  0  0  0  0  0  0  0  0  0
    7.3825   35.7776   13.1649 H   0  0  0  0  0  0  0  0  0  0  0  0
   10.7431   40.6763   11.7170 H   0  0  0  0  0  0  0  0  0  0  0  0
   11.2958   39.9771   13.3236 H   0  0  0  0  0  0  0  0  0  0  0  0
   12.0470   39.8949    9.6076 H   0  0  0  0  0  0  0  0  0  0  0  0
   14.3586   39.5736    8.7185 H   0  0  0  0  0  0  0  0  0  0  0  0
   16.2539   39.1042   10.2856 H   0  0  0  0  0  0  0  0  0  0  0  0
   17.0929   38.7604   12.5238 H   0  0  0  0  0  0  0  0  0  0  0  0
   16.7150   38.6084   14.9953 H   0  0  0  0  0  0  0  0  0  0  0  0
   14.4116   38.9314   15.9304 H   0  0  0  0  0  0  0  0  0  0  0  0
   12.4884   39.4014   14.4018 H   0  0  0  0  0  0  0  0  0  0  0  0
   10.1447   40.0501    9.5460 H   0  0  0  0  0  0  0  0  0  0  0  0
    8.7517   39.1727    7.6542 H   0  0  0  0  0  0  0  0  0  0  0  0
    7.5391   35.8125   10.1116 H   0  0  0  0  0  0  0  0  0  0  0  0
  1  2  1  0
  2  3  1  0
  3  4  1  0
  4  5  2  0
  4  6  1  0
  6  7  1  0
  6  8  1  0
  8  9  1  0
  9 10  2  0
 10 11  1  0
 11 12  2  0
 11 13  1  0
 10 14  1  0
 14 15  1  0
 15 16  1  0
 16 17  2  0
 17 18  1  0
 18 19  2  0
 19 20  1  0
 20 21  2  0
 21 22  1  0
 22 23  2  0
 23 24  1  0
 24 25  2  0
 14 26  1  0
 26 27  2  0
 27 28  1  0
 28 29  2  0
 29 30  1  0
 29 31  1  0
 31 32  2  0
 32  9  1  0
 25 16  1  0
 32 26  1  0
 25 20  1  0
  1 33  1  0
  1 34  1  0
  1 35  1  0
  2 36  1  0
  2 37  1  0
  7 38  1  0
  7 39  1  0
  7 40  1  0
  8 41  1  0
  8 42  1  0
 15 43  1  0
 15 44  1  0
 17 45  1  0
 18 46  1  0
 19 47  1  0
 21 48  1  0
 22 49  1  0
 23 50  1  0
 24 51  1  0
 27 52  1  0
 28 53  1  0
 31 54  1  0
M  CHG  1  13  -1
M  END
>  <meeko>  (38) 
{"free_energy": -5.15, "intermolecular_energy": -7.53, "internal_energy": -1.61, "cluster_size": 84, "cluster_id": 58, "rank_in_cluster": 58}

$$$$

     RDKit          3D

 54 57  0  0  0  0  0  0  0  0999 V2000
   16.0160   40.2760    8.4840 C   0  0  0  0  0  0  0  0  0  0  0  0
   14.9620   39.1760    8.6420 C   0  0  0  0  0  0  0  0  0  0  0  0
   15.4850   38.1430    9.4610 O   0  0  0  0  0  0  0  0  0  0  0  0
   14.7760   37.6950   10.5190 C   0  0  0  0  0  0  0  0  0  0  0  0
   14.0520   36.6990   10.4780 O   0  0  0  0  0  0  0  0  0  0  0  0
   14.9930   38.5120   11.6370 N   0  0  0  0  0  0  0  0  0  0  0  0
   16.0010   38.1920   12.6530 C   0  0  0  0  0  0  0  0  0  0  0  0
   14.1930   39.7240   11.8610 C   0  0  0  0  0  0  0  0  0  0  0  0
   12.7170   39.4230   11.9740 C   0  0  0  0  0  0  0  0  0  0  0  0
   11.7490   39.4510   10.9850 C   0  0  0  0  0  0  0  0  0  0  0  0
   11.8850   39.7500    9.5260 C   0  0  0  0  0  0  0  0  0  0  0  0
   12.1930   40.9100    9.1770 O   0  0  0  0  0  0  0  0  0  0  0  0
   11.6750   38.8610    8.6720 O   0  0  0  0  0  1  0  0  0  0  0  0
   10.4970   39.1600   11.5680 N   0  0  0  0  0  0  0  0  0  0  0  0
    9.1880   39.0680   10.9140 C   0  0  0  0  0  0  0  0  0  0  0  0
    8.9560   37.7780   10.1160 C   0  0  0  0  0  0  0  0  0  0  0  0
    9.4080   36.5280   10.6080 C   0  0  0  0  0  0  0  0  0  0  0  0
    9.1970   35.3440    9.8800 C   0  0  0  0  0  0  0  0  0  0  0  0
    8.5310   35.3890    8.6450 C   0  0  0  0  0  0  0  0  0  0  0  0
    8.0740   36.6180    8.1330 C   0  0  0  0  0  0  0  0  0  0  0  0
    7.4080   36.6440    6.8910 C   0  0  0  0  0  0  0  0  0  0  0  0
    6.9440   37.8610    6.3600 C   0  0  0  0  0  0  0  0  0  0  0  0
    7.1440   39.0560    7.0740 C   0  0  0  0  0  0  0  0  0  0  0  0
    7.8090   39.0370    8.3150 C   0  0  0  0  0  0  0  0  0  0  0  0
    8.2830   37.8200    8.8640 C   0  0  0  0  0  0  0  0  0  0  0  0
   10.6640   38.9460   12.9300 C   0  0  0  0  0  0  0  0  0  0  0  0
    9.7430   38.6430   13.9530 C   0  0  0  0  0  0  0  0  0  0  0  0
   10.1930   38.4660   15.2720 C   0  0  0  0  0  0  0  0  0  0  0  0
   11.5630   38.5920   15.5630 C   0  0  0  0  0  0  0  0  0  0  0  0
   12.0040   38.4190   16.8310 F   0  0  0  0  0  0  0  0  0  0  0  0
   12.4760   38.8990   14.5360 C   0  0  0  0  0  0  0  0  0  0  0  0
   12.0510   39.0890   13.1990 C   0  0  0  0  0  0  0  0  0  0  0  0
   16.3423   40.6166    9.4777 H   0  0  0  0  0  0  0  0  0  0  0  0
   16.8798   39.8793    7.9304 H   0  0  0  0  0  0  0  0  0  0  0  0
   15.5828   41.1221    7.9304 H   0  0  0  0  0  0  0  0  0  0  0  0
   14.0596   39.5957    9.1106 H   0  0  0  0  0  0  0  0  0  0  0  0
   14.7023   38.7684    7.6539 H   0  0  0  0  0  0  0  0  0  0  0  0
   15.5682   38.3294   13.6549 H   0  0  0  0  0  0  0  0  0  0  0  0
   16.3237   37.1473   12.5331 H   0  0  0  0  0  0  0  0  0  0  0  0
   16.8672   38.8593   12.5331 H   0  0  0  0  0  0  0  0  0  0  0  0
   14.5289   40.2026   12.7927 H   0  0  0  0  0  0  0  0  0  0  0  0
   14.3362   40.3870   10.9950 H   0  0  0  0  0  0  0  0  0  0  0  0
    8.4120   39.1339   11.6909 H   0  0  0  0  0  0  0  0  0  0  0  0
    9.1464   39.8929   10.1875 H   0  0  0  0  0  0  0  0  0  0  0  0
    9.9319   36.4836   11.5742 H   0  0  0  0  0  0  0  0  0  0  0  0
    9.5537   34.3825   10.2780 H   0  0  0  0  0  0  0  0  0  0  0  0
    8.3659   34.4620    8.0763 H   0  0  0  0  0  0  0  0  0  0  0  0
    7.2504   35.7083    6.3345 H   0  0  0  0  0  0  0  0  0  0  0  0
    6.4264   37.8780    5.3895 H   0  0  0  0  0  0  0  0  0  0  0  0
    6.7798   40.0085    6.6617 H   0  0  0  0  0  0  0  0  0  0  0  0
    7.9622   39.9776    8.8644 H   0  0  0  0  0  0  0  0  0  0  0  0
    8.6727   38.5452   13.7188 H   0  0  0  0  0  0  0  0  0  0  0  0
    9.4772   38.2300   16.0732 H   0  0  0  0  0  0  0  0  0  0  0  0
   13.5448   38.9934   14.7782 H   0  0  0  0  0  0  0  0  0  0  0  0
  1  2  1  0
  2  3  1  0
  3  4  1  0
  4  5  2  0
  4  6  1  0
  6  7  1  0
  6  8  1  0
  8  9  1  0
  9 10  2  0
 10 11  1  0
 11 12  2  0
 11 13  1  0
 10 14  1  0
 14 15  1  0
 15 16  1  0
 16 17  2  0
 17 18  1  0
 18 19  2  0
 19 20  1  0
 20 21  2  0
 21 22  1  0
 22 23  2  0
 23 24  1  0
 24 25  2  0
 14 26  1  0
 26 27  2  0
 27 28  1  0
 28 29  2  0
 29 30  1  0
 29 31  1  0
 31 32  2  0
 32  9  1  0
 25 16  1  0
 32 26  1  0
 25 20  1  0
  1 33  1  0
  1 34  1  0
  1 35  1  0
  2 36  1  0
  2 37  1  0
  7 38  1  0
  7 39  1  0
  7 40  1  0
  8 41  1  0
  8 42  1  0
 15 43  1  0
 15 44  1  0
 17 45  1  0
 18 46  1  0
 19 47  1  0
 21 48  1  0
 22 49  1  0
 23 50  1  0
 24 51  1  0
 27 52  1  0
 28 53  1  0
 31 54  1  0
M  CHG  1  13  -1
M  END
>  <meeko>  (39) 
{"free_energy": -6.87, "intermolecular_energy": -9.25, "internal_energy": -2.24, "cluster_size": 292, "cluster_id": 10, "rank_in_cluster": 27}

$$$$

     RDKit          3D

 54 57  0  0  0  0  0  0  0  0999 V2000
    9.0850   34.0150   16.6180 C   0  0  0  0  0  0  0  0  0  0  0  0
    9.4880   33.7990   15.1580 C   0  0  0  0  0  0  0  0  0  0  0  0
    8.4960   34.3570   14.3120 O   0  0  0  0  0  0  0  0  0  0  0  0
    8.6070   35.6350   13.8900 C   0  0  0  0  0  0  0  0  0  0  0  0
    8.5850   36.6040   14.6500 O   0  0  0  0  0  0  0  0  0  0  0  0
    8.7550   35.6810   12.4970 N   0  0  0  0  0  0  0  0  0  0  0  0
    7.7430   35.1320   11.5870 C   0  0  0  0  0  0  0  0  0  0  0  0
    9.9530   36.2610   11.8770 C   0  0  0  0  0  0  0  0  0  0  0  0
    9.6530   37.5490   11.1460 C   0  0  0  0  0  0  0  0  0  0  0  0
    9.9550   38.8470   11.5180 C   0  0  0  0  0  0  0  0  0  0  0  0
   10.6900   39.3480   12.7220 C   0  0  0  0  0  0  0  0  0  0  0  0
   11.9390   39.3180   12.7170 O   0  0  0  0  0  0  0  0  0  0  0  0
   10.0650   39.7700   13.7190 O   0  0  0  0  0  1  0  0  0  0  0  0
    9.4220   39.7310   10.5560 N   0  0  0  0  0  0  0  0  0  0  0  0
    9.5000   41.1940   10.5220 C   0  0  0  0  0  0  0  0  0  0  0  0
   10.8610   41.7780   10.9260 C   0  0  0  0  0  0  0  0  0  0  0  0
   10.9540   42.7770   11.9260 C   0  0  0  0  0  0  0  0  0  0  0  0
   12.1980   43.3140   12.2990 C   0  0  0  0  0  0  0  0  0  0  0  0
   13.3730   42.8630   11.6760 C   0  0  0  0  0  0  0  0  0  0  0  0
   13.3060   41.8720   10.6790 C   0  0  0  0  0  0  0  0  0  0  0  0
   14.4960   41.4310   10.0640 C   0  0  0  0  0  0  0  0  0  0  0  0
   14.4540   40.4420    9.0640 C   0  0  0  0  0  0  0  0  0  0  0  0
   13.2180   39.8920    8.6780 C   0  0  0  0  0  0  0  0  0  0  0  0
   12.0270   40.3280    9.2880 C   0  0  0  0  0  0  0  0  0  0  0  0
   12.0520   41.3230   10.2960 C   0  0  0  0  0  0  0  0  0  0  0  0
    8.7790   38.9980    9.5680 C   0  0  0  0  0  0  0  0  0  0  0  0
    8.0810   39.3940    8.4080 C   0  0  0  0  0  0  0  0  0  0  0  0
    7.5230   38.4230    7.5600 C   0  0  0  0  0  0  0  0  0  0  0  0
    7.6660   37.0600    7.8730 C   0  0  0  0  0  0  0  0  0  0  0  0
    7.1340   36.1190    7.0570 F   0  0  0  0  0  0  0  0  0  0  0  0
    8.3610   36.6720    9.0350 C   0  0  0  0  0  0  0  0  0  0  0  0
    8.9280   37.6280    9.9120 C   0  0  0  0  0  0  0  0  0  0  0  0
    9.8607   33.5992   17.2779 H   0  0  0  0  0  0  0  0  0  0  0  0
    8.9766   35.0921   16.8129 H   0  0  0  0  0  0  0  0  0  0  0  0
    8.1280   33.5089   16.8129 H   0  0  0  0  0  0  0  0  0  0  0  0
   10.4534   34.2903   14.9665 H   0  0  0  0  0  0  0  0  0  0  0  0
    9.5816   32.7217   14.9564 H   0  0  0  0  0  0  0  0  0  0  0  0
    6.9249   34.6882   12.1733 H   0  0  0  0  0  0  0  0  0  0  0  0
    7.3445   35.9376   10.9528 H   0  0  0  0  0  0  0  0  0  0  0  0
    8.2011   34.3587   10.9528 H   0  0  0  0  0  0  0  0  0  0  0  0
   10.6949   36.4648   12.6631 H   0  0  0  0  0  0  0  0  0  0  0  0
   10.3356   35.5377   11.1419 H   0  0  0  0  0  0  0  0  0  0  0  0
    9.2771   41.5244    9.4967 H   0  0  0  0  0  0  0  0  0  0  0  0
    8.7749   41.5590   11.2643 H   0  0  0  0  0  0  0  0  0  0  0  0
   10.0387   43.1379   12.4180 H   0  0  0  0  0  0  0  0  0  0  0  0
   12.2513   44.0877   13.0791 H   0  0  0  0  0  0  0  0  0  0  0  0
   14.3463   43.2846   11.9675 H   0  0  0  0  0  0  0  0  0  0  0  0
   15.4614   41.8621   10.3674 H   0  0  0  0  0  0  0  0  0  0  0  0
   15.3839   40.1002    8.5860 H   0  0  0  0  0  0  0  0  0  0  0  0
   13.1823   39.1185    7.8967 H   0  0  0  0  0  0  0  0  0  0  0  0
   11.0660   39.8913    8.9786 H   0  0  0  0  0  0  0  0  0  0  0  0
    7.9737   40.4621    8.1677 H   0  0  0  0  0  0  0  0  0  0  0  0
    6.9767   38.7278    6.6552 H   0  0  0  0  0  0  0  0  0  0  0  0
    8.4657   35.6017    9.2664 H   0  0  0  0  0  0  0  0  0  0  0  0
  1  2  1  0
  2  3  1  0
  3  4  1  0
  4  5  2  0
  4  6  1  0
  6  7  1  0
  6  8  1  0
  8  9  1  0
  9 10  2  0
 10 11  1  0
 11 12  2  0
 11 13  1  0
 10 14  1  0
 14 15  1  0
 15 16  1  0
 16 17  2  0
 17 18  1  0
 18 19  2  0
 19 20  1  0
 20 21  2  0
 21 22  1  0
 22 23  2  0
 23 24  1  0
 24 25  2  0
 14 26  1  0
 26 27  2  0
 27 28  1  0
 28 29  2  0
 29 30  1  0
 29 31  1  0
 31 32  2  0
 32  9  1  0
 25 16  1  0
 32 26  1  0
 25 20  1  0
  1 33  1  0
  1 34  1  0
  1 35  1  0
  2 36  1  0
  2 37  1  0
  7 38  1  0
  7 39  1  0
  7 40  1  0
  8 41  1  0
  8 42  1  0
 15 43  1  0
 15 44  1  0
 17 45  1  0
 18 46  1  0
 19 47  1  0
 21 48  1  0
 22 49  1  0
 23 50  1  0
 24 51  1  0
 27 52  1  0
 28 53  1  0
 31 54  1  0
M  CHG  1  13  -1
M  END
>  <meeko>  (40) 
{"free_energy": -6.32, "intermolecular_energy": -8.7, "internal_energy": -1.85, "cluster_size": 318, "cluster_id": 5, "rank_in_cluster": 87}

$$$$

     RDKit          3D

 54 57  0  0  0  0  0  0  0  0999 V2000
    5.8910   35.0550   17.5130 C   0  0  0  0  0  0  0  0  0  0  0  0
    7.2570   35.2870   18.1640 C   0  0  0  0  0  0  0  0  0  0  0  0
    8.2450   34.5670   17.4450 O   0  0  0  0  0  0  0  0  0  0  0  0
    8.5880   34.9520   16.1970 C   0  0  0  0  0  0  0  0  0  0  0  0
    8.0940   34.4660   15.1780 O   0  0  0  0  0  0  0  0  0  0  0  0
    9.5580   35.9620   16.2430 N   0  0  0  0  0  0  0  0  0  0  0  0
    9.3720   37.1860   17.0290 C   0  0  0  0  0  0  0  0  0  0  0  0
   10.8060   35.8550   15.4760 C   0  0  0  0  0  0  0  0  0  0  0  0
   10.8660   36.8480   14.3390 C   0  0  0  0  0  0  0  0  0  0  0  0
   11.6160   38.0060   14.2390 C   0  0  0  0  0  0  0  0  0  0  0  0
   12.6030   38.5900   15.2000 C   0  0  0  0  0  0  0  0  0  0  0  0
   13.7400   38.0780   15.2780 O   0  0  0  0  0  0  0  0  0  0  0  0
   12.2880   39.5590   15.9250 O   0  0  0  0  0  1  0  0  0  0  0  0
   11.3000   38.6490   13.0230 N   0  0  0  0  0  0  0  0  0  0  0  0
   11.8490   39.8950   12.4820 C   0  0  0  0  0  0  0  0  0  0  0  0
   12.6590   39.7360   11.1890 C   0  0  0  0  0  0  0  0  0  0  0  0
   12.1310   40.1620    9.9440 C   0  0  0  0  0  0  0  0  0  0  0  0
   12.8700   40.0180    8.7570 C   0  0  0  0  0  0  0  0  0  0  0  0
   14.1510   39.4430    8.7920 C   0  0  0  0  0  0  0  0  0  0  0  0
   14.6960   39.0110   10.0160 C   0  0  0  0  0  0  0  0  0  0  0  0
   15.9840   38.4360   10.0330 C   0  0  0  0  0  0  0  0  0  0  0  0
   16.5490   37.9970   11.2430 C   0  0  0  0  0  0  0  0  0  0  0  0
   15.8260   38.1330   12.4420 C   0  0  0  0  0  0  0  0  0  0  0  0
   14.5390   38.7060   12.4320 C   0  0  0  0  0  0  0  0  0  0  0  0
   13.9560   39.1540   11.2210 C   0  0  0  0  0  0  0  0  0  0  0  0
   10.3460   37.9010   12.3440 C   0  0  0  0  0  0  0  0  0  0  0  0
    9.6930   38.1060   11.1120 C   0  0  0  0  0  0  0  0  0  0  0  0
    8.7580   37.1650   10.6490 C   0  0  0  0  0  0  0  0  0  0  0  0
    8.4800   36.0230   11.4190 C   0  0  0  0  0  0  0  0  0  0  0  0
    7.5820   35.1100   10.9760 F   0  0  0  0  0  0  0  0  0  0  0  0
    9.1330   35.8260   12.6510 C   0  0  0  0  0  0  0  0  0  0  0  0
   10.0760   36.7600   13.1460 C   0  0  0  0  0  0  0  0  0  0  0  0
    5.1290   34.9256   18.2957 H   0  0  0  0  0  0  0  0  0  0  0  0
    5.6308   35.9218   16.8878 H   0  0  0  0  0  0  0  0  0  0  0  0
    5.9316   34.1509   16.8878 H   0  0  0  0  0  0  0  0  0  0  0  0
    7.4965   36.3604   18.1438 H   0  0  0  0  0  0  0  0  0  0  0  0
    7.2328   34.9394   19.2074 H   0  0  0  0  0  0  0  0  0  0  0  0
    9.4090   36.9425   18.1011 H   0  0  0  0  0  0  0  0  0  0  0  0
   10.1717   37.9017   16.7878 H   0  0  0  0  0  0  0  0  0  0  0  0
    8.3958   37.6319   16.7878 H   0  0  0  0  0  0  0  0  0  0  0  0
   11.6539   36.0395   16.1521 H   0  0  0  0  0  0  0  0  0  0  0  0
   10.8501   34.8445   15.0435 H   0  0  0  0  0  0  0  0  0  0  0  0
   11.0109   40.5777   12.2784 H   0  0  0  0  0  0  0  0  0  0  0  0
   12.5487   40.2783   13.2393 H   0  0  0  0  0  0  0  0  0  0  0  0
   11.1279   40.6120    9.9064 H   0  0  0  0  0  0  0  0  0  0  0  0
   12.4449   40.3558    7.8003 H   0  0  0  0  0  0  0  0  0  0  0  0
   14.7286   39.3302    7.8627 H   0  0  0  0  0  0  0  0  0  0  0  0
   16.5489   38.3306    9.0950 H   0  0  0  0  0  0  0  0  0  0  0  0
   17.5534   37.5485   11.2522 H   0  0  0  0  0  0  0  0  0  0  0  0
   16.2667   37.7910   13.3900 H   0  0  0  0  0  0  0  0  0  0  0  0
   13.9808   38.8066   13.3745 H   0  0  0  0  0  0  0  0  0  0  0  0
    9.9151   39.0018   10.5135 H   0  0  0  0  0  0  0  0  0  0  0  0
    8.2460   37.3216    9.6881 H   0  0  0  0  0  0  0  0  0  0  0  0
    8.9057   34.9267   13.2422 H   0  0  0  0  0  0  0  0  0  0  0  0
  1  2  1  0
  2  3  1  0
  3  4  1  0
  4  5  2  0
  4  6  1  0
  6  7  1  0
  6  8  1  0
  8  9  1  0
  9 10  2  0
 10 11  1  0
 11 12  2  0
 11 13  1  0
 10 14  1  0
 14 15  1  0
 15 16  1  0
 16 17  2  0
 17 18  1  0
 18 19  2  0
 19 20  1  0
 20 21  2  0
 21 22  1  0
 22 23  2  0
 23 24  1  0
 24 25  2  0
 14 26  1  0
 26 27  2  0
 27 28  1  0
 28 29  2  0
 29 30  1  0
 29 31  1  0
 31 32  2  0
 32  9  1  0
 25 16  1  0
 32 26  1  0
 25 20  1  0
  1 33  1  0
  1 34  1  0
  1 35  1  0
  2 36  1  0
  2 37  1  0
  7 38  1  0
  7 39  1  0
  7 40  1  0
  8 41  1  0
  8 42  1  0
 15 43  1  0
 15 44  1  0
 17 45  1  0
 18 46  1  0
 19 47  1  0
 21 48  1  0
 22 49  1  0
 23 50  1  0
 24 51  1  0
 27 52  1  0
 28 53  1  0
 31 54  1  0
M  CHG  1  13  -1
M  END
>  <meeko>  (41) 
{"free_energy": -5.73, "intermolecular_energy": -8.12, "internal_energy": -1.93, "cluster_size": 84, "cluster_id": 58, "rank_in_cluster": 17}

$$$$

     RDKit          3D

 54 57  0  0  0  0  0  0  0  0999 V2000
   10.0120   40.2490    9.5250 C   0  0  0  0  0  0  0  0  0  0  0  0
    8.5230   40.1960    9.8760 C   0  0  0  0  0  0  0  0  0  0  0  0
    8.3250   39.2680   10.9310 O   0  0  0  0  0  0  0  0  0  0  0  0
    9.1990   38.2550   11.1140 C   0  0  0  0  0  0  0  0  0  0  0  0
    9.2410   37.2580   10.3920 O   0  0  0  0  0  0  0  0  0  0  0  0
   10.0260   38.5130   12.2140 N   0  0  0  0  0  0  0  0  0  0  0  0
    9.9740   39.7820   12.9500 C   0  0  0  0  0  0  0  0  0  0  0  0
   11.0150   37.5280   12.6710 C   0  0  0  0  0  0  0  0  0  0  0  0
   10.7810   37.1030   14.1020 C   0  0  0  0  0  0  0  0  0  0  0  0
    9.8300   36.2310   14.6030 C   0  0  0  0  0  0  0  0  0  0  0  0
    8.7910   35.4350   13.8790 C   0  0  0  0  0  0  0  0  0  0  0  0
    8.5510   35.7080   12.6830 O   0  0  0  0  0  0  0  0  0  0  0  0
    8.1610   34.5280   14.4650 O   0  0  0  0  0  1  0  0  0  0  0  0
    9.9480   36.1900   16.0090 N   0  0  0  0  0  0  0  0  0  0  0  0
    9.1640   35.4020   16.9650 C   0  0  0  0  0  0  0  0  0  0  0  0
    7.8400   36.0460   17.3990 C   0  0  0  0  0  0  0  0  0  0  0  0
    6.6650   35.8810   16.6240 C   0  0  0  0  0  0  0  0  0  0  0  0
    5.4500   36.4680   17.0180 C   0  0  0  0  0  0  0  0  0  0  0  0
    5.3890   37.2340   18.1930 C   0  0  0  0  0  0  0  0  0  0  0  0
    6.5430   37.4140   18.9790 C   0  0  0  0  0  0  0  0  0  0  0  0
    6.4630   38.1870   20.1560 C   0  0  0  0  0  0  0  0  0  0  0  0
    7.6030   38.3800   20.9560 C   0  0  0  0  0  0  0  0  0  0  0  0
    8.8280   37.8000   20.5800 C   0  0  0  0  0  0  0  0  0  0  0  0
    8.9150   37.0280   19.4050 C   0  0  0  0  0  0  0  0  0  0  0  0
    7.7750   36.8220   18.5880 C   0  0  0  0  0  0  0  0  0  0  0  0
   10.9740   37.0360   16.4080 C   0  0  0  0  0  0  0  0  0  0  0  0
   11.4800   37.3630   17.6820 C   0  0  0  0  0  0  0  0  0  0  0  0
   12.5540   38.2620   17.8010 C   0  0  0  0  0  0  0  0  0  0  0  0
   13.1170   38.8290   16.6450 C   0  0  0  0  0  0  0  0  0  0  0  0
   14.1550   39.6940   16.7510 F   0  0  0  0  0  0  0  0  0  0  0  0
   12.6040   38.5010   15.3750 C   0  0  0  0  0  0  0  0  0  0  0  0
   11.5190   37.6040   15.2250 C   0  0  0  0  0  0  0  0  0  0  0  0
   10.6063   40.2702   10.4504 H   0  0  0  0  0  0  0  0  0  0  0  0
   10.2818   39.3599    8.9362 H   0  0  0  0  0  0  0  0  0  0  0  0
   10.2179   41.1550    8.9362 H   0  0  0  0  0  0  0  0  0  0  0  0
    8.1844   41.1929   10.1946 H   0  0  0  0  0  0  0  0  0  0  0  0
    7.9464   39.8811    8.9938 H   0  0  0  0  0  0  0  0  0  0  0  0
    9.9823   39.5794   14.0312 H   0  0  0  0  0  0  0  0  0  0  0  0
   10.8478   40.3955   12.6852 H   0  0  0  0  0  0  0  0  0  0  0  0
    9.0530   40.3220   12.6852 H   0  0  0  0  0  0  0  0  0  0  0  0
   10.9555   36.6404   12.0240 H   0  0  0  0  0  0  0  0  0  0  0  0
   12.0081   37.9980   12.6173 H   0  0  0  0  0  0  0  0  0  0  0  0
    8.9362   34.4306   16.5019 H   0  0  0  0  0  0  0  0  0  0  0  0
    9.7788   35.3170   17.8732 H   0  0  0  0  0  0  0  0  0  0  0  0
    6.7043   35.2847   15.7005 H   0  0  0  0  0  0  0  0  0  0  0  0
    4.5471   36.3272   16.4057 H   0  0  0  0  0  0  0  0  0  0  0  0
    4.4382   37.6942   18.4999 H   0  0  0  0  0  0  0  0  0  0  0  0
    5.5048   38.6407   20.4493 H   0  0  0  0  0  0  0  0  0  0  0  0
    7.5370   38.9830   21.8736 H   0  0  0  0  0  0  0  0  0  0  0  0
    9.7206   37.9497   21.2053 H   0  0  0  0  0  0  0  0  0  0  0  0
    9.8779   36.5802   19.1183 H   0  0  0  0  0  0  0  0  0  0  0  0
   11.0348   36.9150   18.5826 H   0  0  0  0  0  0  0  0  0  0  0  0
   12.9516   38.5203   18.7936 H   0  0  0  0  0  0  0  0  0  0  0  0
   13.0565   38.9519   14.4795 H   0  0  0  0  0  0  0  0  0  0  0  0
  1  2  1  0
  2  3  1  0
  3  4  1  0
  4  5  2  0
  4  6  1  0
  6  7  1  0
  6  8  1  0
  8  9  1  0
  9 10  2  0
 10 11  1  0
 11 12  2  0
 11 13  1  0
 10 14  1  0
 14 15  1  0
 15 16  1  0
 16 17  2  0
 17 18  1  0
 18 19  2  0
 19 20  1  0
 20 21  2  0
 21 22  1  0
 22 23  2  0
 23 24  1  0
 24 25  2  0
 14 26  1  0
 26 27  2  0
 27 28  1  0
 28 29  2  0
 29 30  1  0
 29 31  1  0
 31 32  2  0
 32  9  1  0
 25 16  1  0
 32 26  1  0
 25 20  1  0
  1 33  1  0
  1 34  1  0
  1 35  1  0
  2 36  1  0
  2 37  1  0
  7 38  1  0
  7 39  1  0
  7 40  1  0
  8 41  1  0
  8 42  1  0
 15 43  1  0
 15 44  1  0
 17 45  1  0
 18 46  1  0
 19 47  1  0
 21 48  1  0
 22 49  1  0
 23 50  1  0
 24 51  1  0
 27 52  1  0
 28 53  1  0
 31 54  1  0
M  CHG  1  13  -1
M  END
>  <meeko>  (42) 
{"free_energy": -5.25, "intermolecular_energy": -7.63, "internal_energy": -1.71, "cluster_size": 102, "cluster_id": 44, "rank_in_cluster": 51}

$$$$

     RDKit          3D

 54 57  0  0  0  0  0  0  0  0999 V2000
    8.1130   41.6760   11.2680 C   0  0  0  0  0  0  0  0  0  0  0  0
    9.1150   41.2790   10.1810 C   0  0  0  0  0  0  0  0  0  0  0  0
   10.2510   40.6860   10.7880 O   0  0  0  0  0  0  0  0  0  0  0  0
   11.4910   41.1200   10.4730 C   0  0  0  0  0  0  0  0  0  0  0  0
   11.9170   42.2350   10.7800 O   0  0  0  0  0  0  0  0  0  0  0  0
   12.1940   40.1320    9.7720 N   0  0  0  0  0  0  0  0  0  0  0  0
   13.5530   40.3520    9.2650 C   0  0  0  0  0  0  0  0  0  0  0  0
   11.5870   38.8260    9.4810 C   0  0  0  0  0  0  0  0  0  0  0  0
   10.9670   38.1980   10.7070 C   0  0  0  0  0  0  0  0  0  0  0  0
   11.3580   38.3090   12.0300 C   0  0  0  0  0  0  0  0  0  0  0  0
   12.4750   39.1030   12.6310 C   0  0  0  0  0  0  0  0  0  0  0  0
   12.2040   39.9530   13.5060 O   0  0  0  0  0  0  0  0  0  0  0  0
   13.6540   38.9320   12.2510 O   0  0  0  0  0  1  0  0  0  0  0  0
   10.5200   37.4950   12.8220 N   0  0  0  0  0  0  0  0  0  0  0  0
   10.5470   37.3010   14.2740 C   0  0  0  0  0  0  0  0  0  0  0  0
   10.0440   35.9320   14.7510 C   0  0  0  0  0  0  0  0  0  0  0  0
   10.6990   34.7400   14.3540 C   0  0  0  0  0  0  0  0  0  0  0  0
   10.2430   33.4840   14.7890 C   0  0  0  0  0  0  0  0  0  0  0  0
    9.1200   33.3960   15.6280 C   0  0  0  0  0  0  0  0  0  0  0  0
    8.4510   34.5660   16.0340 C   0  0  0  0  0  0  0  0  0  0  0  0
    7.3240   34.4600   16.8760 C   0  0  0  0  0  0  0  0  0  0  0  0
    6.6400   35.6150   17.2950 C   0  0  0  0  0  0  0  0  0  0  0  0
    7.0830   36.8810   16.8720 C   0  0  0  0  0  0  0  0  0  0  0  0
    8.2060   36.9940   16.0300 C   0  0  0  0  0  0  0  0  0  0  0  0
    8.9070   35.8410   15.6000 C   0  0  0  0  0  0  0  0  0  0  0  0
    9.5920   36.8630   12.0050 C   0  0  0  0  0  0  0  0  0  0  0  0
    8.5570   35.9490   12.2910 C   0  0  0  0  0  0  0  0  0  0  0  0
    7.7450   35.4620   11.2530 C   0  0  0  0  0  0  0  0  0  0  0  0
    7.9690   35.8920    9.9330 C   0  0  0  0  0  0  0  0  0  0  0  0
    7.1870   35.4300    8.9280 F   0  0  0  0  0  0  0  0  0  0  0  0
    9.0070   36.8020    9.6550 C   0  0  0  0  0  0  0  0  0  0  0  0
    9.8460   37.3050   10.6790 C   0  0  0  0  0  0  0  0  0  0  0  0
    8.5577   41.4998   12.2586 H   0  0  0  0  0  0  0  0  0  0  0  0
    7.8615   42.7417   11.1633 H   0  0  0  0  0  0  0  0  0  0  0  0
    7.1998   41.0717   11.1633 H   0  0  0  0  0  0  0  0  0  0  0  0
    8.6466   40.5585    9.4943 H   0  0  0  0  0  0  0  0  0  0  0  0
    9.4215   42.1722    9.6169 H   0  0  0  0  0  0  0  0  0  0  0  0
   14.2464   40.4643   10.1115 H   0  0  0  0  0  0  0  0  0  0  0  0
   13.8593   39.4917    8.6517 H   0  0  0  0  0  0  0  0  0  0  0  0
   13.5722   41.2650    8.6517 H   0  0  0  0  0  0  0  0  0  0  0  0
   10.8056   38.9607    8.7186 H   0  0  0  0  0  0  0  0  0  0  0  0
   12.3832   38.1558    9.1248 H   0  0  0  0  0  0  0  0  0  0  0  0
   11.5855   37.4219   14.6159 H   0  0  0  0  0  0  0  0  0  0  0  0
    9.8599   38.0478   14.6985 H   0  0  0  0  0  0  0  0  0  0  0  0
   11.5779   34.7987   13.6952 H   0  0  0  0  0  0  0  0  0  0  0  0
   10.7657   32.5694   14.4723 H   0  0  0  0  0  0  0  0  0  0  0  0
    8.7632   32.4125   15.9679 H   0  0  0  0  0  0  0  0  0  0  0  0
    6.9787   33.4692   17.2063 H   0  0  0  0  0  0  0  0  0  0  0  0
    5.7615   35.5286   17.9513 H   0  0  0  0  0  0  0  0  0  0  0  0
    6.5505   37.7859   17.2000 H   0  0  0  0  0  0  0  0  0  0  0  0
    8.5425   37.9888   15.7026 H   0  0  0  0  0  0  0  0  0  0  0  0
    8.3855   35.6176   13.3258 H   0  0  0  0  0  0  0  0  0  0  0  0
    6.9377   34.7476   11.4719 H   0  0  0  0  0  0  0  0  0  0  0  0
    9.1701   37.1300    8.6178 H   0  0  0  0  0  0  0  0  0  0  0  0
  1  2  1  0
  2  3  1  0
  3  4  1  0
  4  5  2  0
  4  6  1  0
  6  7  1  0
  6  8  1  0
  8  9  1  0
  9 10  2  0
 10 11  1  0
 11 12  2  0
 11 13  1  0
 10 14  1  0
 14 15  1  0
 15 16  1  0
 16 17  2  0
 17 18  1  0
 18 19  2  0
 19 20  1  0
 20 21  2  0
 21 22  1  0
 22 23  2  0
 23 24  1  0
 24 25  2  0
 14 26  1  0
 26 27  2  0
 27 28  1  0
 28 29  2  0
 29 30  1  0
 29 31  1  0
 31 32  2  0
 32  9  1  0
 25 16  1  0
 32 26  1  0
 25 20  1  0
  1 33  1  0
  1 34  1  0
  1 35  1  0
  2 36  1  0
  2 37  1  0
  7 38  1  0
  7 39  1  0
  7 40  1  0
  8 41  1  0
  8 42  1  0
 15 43  1  0
 15 44  1  0
 17 45  1  0
 18 46  1  0
 19 47  1  0
 21 48  1  0
 22 49  1  0
 23 50  1  0
 24 51  1  0
 27 52  1  0
 28 53  1  0
 31 54  1  0
M  CHG  1  13  -1
M  END
>  <meeko>  (43) 
{"free_energy": -6.17, "intermolecular_energy": -8.55, "internal_energy": -1.42, "cluster_size": 253, "cluster_id": 8, "rank_in_cluster": 107}

$$$$

     RDKit          3D

 54 57  0  0  0  0  0  0  0  0999 V2000
    5.2770   38.8040    5.4630 C   0  0  0  0  0  0  0  0  0  0  0  0
    6.5890   39.3960    5.9860 C   0  0  0  0  0  0  0  0  0  0  0  0
    6.7870   38.9800    7.3270 O   0  0  0  0  0  0  0  0  0  0  0  0
    7.3630   37.7860    7.5880 C   0  0  0  0  0  0  0  0  0  0  0  0
    7.2940   36.8200    6.8260 O   0  0  0  0  0  0  0  0  0  0  0  0
    8.0350   37.8230    8.8160 N   0  0  0  0  0  0  0  0  0  0  0  0
    7.3670   38.2270   10.0590 C   0  0  0  0  0  0  0  0  0  0  0  0
    9.4600   37.4820    8.9160 C   0  0  0  0  0  0  0  0  0  0  0  0
   10.0740   37.9620   10.2090 C   0  0  0  0  0  0  0  0  0  0  0  0
   10.9200   39.0360   10.4210 C   0  0  0  0  0  0  0  0  0  0  0  0
   11.4390   40.0470    9.4480 C   0  0  0  0  0  0  0  0  0  0  0  0
   10.9210   41.1850    9.4300 O   0  0  0  0  0  0  0  0  0  0  0  0
   12.3610   39.7530    8.6560 O   0  0  0  0  0  1  0  0  0  0  0  0
   11.2910   39.0620   11.7830 N   0  0  0  0  0  0  0  0  0  0  0  0
   12.1600   40.0190   12.4720 C   0  0  0  0  0  0  0  0  0  0  0  0
   13.6640   39.7710   12.2900 C   0  0  0  0  0  0  0  0  0  0  0  0
   14.6180   40.6560   12.8520 C   0  0  0  0  0  0  0  0  0  0  0  0
   15.9960   40.4330   12.6880 C   0  0  0  0  0  0  0  0  0  0  0  0
   16.4460   39.3210   11.9580 C   0  0  0  0  0  0  0  0  0  0  0  0
   15.5170   38.4290   11.3890 C   0  0  0  0  0  0  0  0  0  0  0  0
   15.9870   37.3180   10.6580 C   0  0  0  0  0  0  0  0  0  0  0  0
   15.0780   36.4140   10.0800 C   0  0  0  0  0  0  0  0  0  0  0  0
   13.6950   36.6190   10.2340 C   0  0  0  0  0  0  0  0  0  0  0  0
   13.2200   37.7270   10.9620 C   0  0  0  0  0  0  0  0  0  0  0  0
   14.1220   38.6470   11.5500 C   0  0  0  0  0  0  0  0  0  0  0  0
   10.6820   38.0020   12.4420 C   0  0  0  0  0  0  0  0  0  0  0  0
   10.7350   37.5760   13.7860 C   0  0  0  0  0  0  0  0  0  0  0  0
    9.9970   36.4520   14.1940 C   0  0  0  0  0  0  0  0  0  0  0  0
    9.2100   35.7590   13.2600 C   0  0  0  0  0  0  0  0  0  0  0  0
    8.4940   34.6770   13.6480 F   0  0  0  0  0  0  0  0  0  0  0  0
    9.1650   36.1870   11.9190 C   0  0  0  0  0  0  0  0  0  0  0  0
    9.9020   37.3120   11.4760 C   0  0  0  0  0  0  0  0  0  0  0  0
    4.6400   38.5166    6.3125 H   0  0  0  0  0  0  0  0  0  0  0  0
    4.7549   39.5538    4.8504 H   0  0  0  0  0  0  0  0  0  0  0  0
    5.4937   37.9164    4.8504 H   0  0  0  0  0  0  0  0  0  0  0  0
    7.4252   39.0435    5.3643 H   0  0  0  0  0  0  0  0  0  0  0  0
    6.5417   40.4941    5.9431 H   0  0  0  0  0  0  0  0  0  0  0  0
    7.9516   37.8734   10.9211 H   0  0  0  0  0  0  0  0  0  0  0  0
    7.2892   39.3237   10.0937 H   0  0  0  0  0  0  0  0  0  0  0  0
    6.3596   37.7866   10.0937 H   0  0  0  0  0  0  0  0  0  0  0  0
    9.5672   36.3888    8.8578 H   0  0  0  0  0  0  0  0  0  0  0  0
    9.9847   37.9814    8.0882 H   0  0  0  0  0  0  0  0  0  0  0  0
   11.9307   41.0251   12.0910 H   0  0  0  0  0  0  0  0  0  0  0  0
   11.9555   39.9044   13.5467 H   0  0  0  0  0  0  0  0  0  0  0  0
   14.2749   41.5301   13.4249 H   0  0  0  0  0  0  0  0  0  0  0  0
   16.7223   41.1299   13.1317 H   0  0  0  0  0  0  0  0  0  0  0  0
   17.5246   39.1468   11.8307 H   0  0  0  0  0  0  0  0  0  0  0  0
   17.0689   37.1581   10.5396 H   0  0  0  0  0  0  0  0  0  0  0  0
   15.4474   35.5493    9.5092 H   0  0  0  0  0  0  0  0  0  0  0  0
   12.9824   35.9118    9.7845 H   0  0  0  0  0  0  0  0  0  0  0  0
   12.1365   37.8796   11.0752 H   0  0  0  0  0  0  0  0  0  0  0  0
   11.3530   38.1229   14.5133 H   0  0  0  0  0  0  0  0  0  0  0  0
   10.0356   36.1163   15.2408 H   0  0  0  0  0  0  0  0  0  0  0  0
    8.5430   35.6347   11.1992 H   0  0  0  0  0  0  0  0  0  0  0  0
  1  2  1  0
  2  3  1  0
  3  4  1  0
  4  5  2  0
  4  6  1  0
  6  7  1  0
  6  8  1  0
  8  9  1  0
  9 10  2  0
 10 11  1  0
 11 12  2  0
 11 13  1  0
 10 14  1  0
 14 15  1  0
 15 16  1  0
 16 17  2  0
 17 18  1  0
 18 19  2  0
 19 20  1  0
 20 21  2  0
 21 22  1  0
 22 23  2  0
 23 24  1  0
 24 25  2  0
 14 26  1  0
 26 27  2  0
 27 28  1  0
 28 29  2  0
 29 30  1  0
 29 31  1  0
 31 32  2  0
 32  9  1  0
 25 16  1  0
 32 26  1  0
 25 20  1  0
  1 33  1  0
  1 34  1  0
  1 35  1  0
  2 36  1  0
  2 37  1  0
  7 38  1  0
  7 39  1  0
  7 40  1  0
  8 41  1  0
  8 42  1  0
 15 43  1  0
 15 44  1  0
 17 45  1  0
 18 46  1  0
 19 47  1  0
 21 48  1  0
 22 49  1  0
 23 50  1  0
 24 51  1  0
 27 52  1  0
 28 53  1  0
 31 54  1  0
M  CHG  1  13  -1
M  END
>  <meeko>  (44) 
{"free_energy": -5.74, "intermolecular_energy": -8.13, "internal_energy": -0.36, "cluster_size": 124, "cluster_id": 20, "rank_in_cluster": 70}

$$$$

     RDKit          3D

 54 57  0  0  0  0  0  0  0  0999 V2000
    6.0620   45.6240   12.6710 C   0  0  0  0  0  0  0  0  0  0  0  0
    6.0020   45.0190   14.0760 C   0  0  0  0  0  0  0  0  0  0  0  0
    6.4490   43.6730   14.0240 O   0  0  0  0  0  0  0  0  0  0  0  0
    7.6790   43.3510   14.4810 C   0  0  0  0  0  0  0  0  0  0  0  0
    7.9790   43.3540   15.6760 O   0  0  0  0  0  0  0  0  0  0  0  0
    8.5270   43.0190   13.4170 N   0  0  0  0  0  0  0  0  0  0  0  0
    8.0160   42.7310   12.0720 C   0  0  0  0  0  0  0  0  0  0  0  0
    9.9800   42.9120   13.6060 C   0  0  0  0  0  0  0  0  0  0  0  0
   10.5430   41.6440   13.0080 C   0  0  0  0  0  0  0  0  0  0  0  0
   10.6250   40.3830   13.5710 C   0  0  0  0  0  0  0  0  0  0  0  0
   10.1540   39.9020   14.9070 C   0  0  0  0  0  0  0  0  0  0  0  0
   10.5490   38.7900   15.3190 O   0  0  0  0  0  0  0  0  0  0  0  0
    9.3650   40.5910   15.5890 O   0  0  0  0  0  1  0  0  0  0  0  0
   11.2860   39.5240   12.6670 N   0  0  0  0  0  0  0  0  0  0  0  0
   11.5920   38.0990   12.8230 C   0  0  0  0  0  0  0  0  0  0  0  0
   10.3820   37.1630   12.7100 C   0  0  0  0  0  0  0  0  0  0  0  0
    9.9540   36.3930   13.8210 C   0  0  0  0  0  0  0  0  0  0  0  0
    8.8450   35.5350   13.7230 C   0  0  0  0  0  0  0  0  0  0  0  0
    8.1450   35.4280   12.5100 C   0  0  0  0  0  0  0  0  0  0  0  0
    8.5510   36.1810   11.3930 C   0  0  0  0  0  0  0  0  0  0  0  0
    7.8360   36.0610   10.1830 C   0  0  0  0  0  0  0  0  0  0  0  0
    8.2250   36.8030    9.0530 C   0  0  0  0  0  0  0  0  0  0  0  0
    9.3300   37.6690    9.1320 C   0  0  0  0  0  0  0  0  0  0  0  0
   10.0490   37.7930   10.3360 C   0  0  0  0  0  0  0  0  0  0  0  0
    9.6710   37.0530   11.4840 C   0  0  0  0  0  0  0  0  0  0  0  0
   11.6270   40.2370   11.5250 C   0  0  0  0  0  0  0  0  0  0  0  0
   12.3020   39.8570   10.3460 C   0  0  0  0  0  0  0  0  0  0  0  0
   12.5100   40.7970    9.3240 C   0  0  0  0  0  0  0  0  0  0  0  0
   12.0420   42.1130    9.4820 C   0  0  0  0  0  0  0  0  0  0  0  0
   12.2360   43.0230    8.4980 F   0  0  0  0  0  0  0  0  0  0  0  0
   11.3730   42.4860   10.6630 C   0  0  0  0  0  0  0  0  0  0  0  0
   11.1540   41.5630   11.7140 C   0  0  0  0  0  0  0  0  0  0  0  0
    6.1703   46.7161   12.7464 H   0  0  0  0  0  0  0  0  0  0  0  0
    6.9232   45.2067   12.1286 H   0  0  0  0  0  0  0  0  0  0  0  0
    5.1356   45.3840   12.1286 H   0  0  0  0  0  0  0  0  0  0  0  0
    6.6494   45.5958   14.7529 H   0  0  0  0  0  0  0  0  0  0  0  0
    4.9673   45.0507   14.4481 H   0  0  0  0  0  0  0  0  0  0  0  0
    7.0602   42.1923   12.1505 H   0  0  0  0  0  0  0  0  0  0  0  0
    7.8614   43.6748   11.5286 H   0  0  0  0  0  0  0  0  0  0  0  0
    8.7434   42.1100   11.5286 H   0  0  0  0  0  0  0  0  0  0  0  0
   10.4639   43.7751   13.1256 H   0  0  0  0  0  0  0  0  0  0  0  0
   10.1785   42.8915   14.6877 H   0  0  0  0  0  0  0  0  0  0  0  0
   12.3158   37.8175   12.0439 H   0  0  0  0  0  0  0  0  0  0  0  0
   11.9824   37.9770   13.8441 H   0  0  0  0  0  0  0  0  0  0  0  0
   10.4981   36.4682   14.7740 H   0  0  0  0  0  0  0  0  0  0  0  0
    8.5253   34.9474   14.5962 H   0  0  0  0  0  0  0  0  0  0  0  0
    7.2785   34.7548   12.4333 H   0  0  0  0  0  0  0  0  0  0  0  0
    6.9707   35.3845   10.1228 H   0  0  0  0  0  0  0  0  0  0  0  0
    7.6664   36.7061    8.1104 H   0  0  0  0  0  0  0  0  0  0  0  0
    9.6337   38.2517    8.2498 H   0  0  0  0  0  0  0  0  0  0  0  0
   10.9134   38.4715   10.3862 H   0  0  0  0  0  0  0  0  0  0  0  0
   12.6650   38.8254   10.2275 H   0  0  0  0  0  0  0  0  0  0  0  0
   13.0369   40.5049    8.4037 H   0  0  0  0  0  0  0  0  0  0  0  0
   11.0117   43.5193   10.7719 H   0  0  0  0  0  0  0  0  0  0  0  0
  1  2  1  0
  2  3  1  0
  3  4  1  0
  4  5  2  0
  4  6  1  0
  6  7  1  0
  6  8  1  0
  8  9  1  0
  9 10  2  0
 10 11  1  0
 11 12  2  0
 11 13  1  0
 10 14  1  0
 14 15  1  0
 15 16  1  0
 16 17  2  0
 17 18  1  0
 18 19  2  0
 19 20  1  0
 20 21  2  0
 21 22  1  0
 22 23  2  0
 23 24  1  0
 24 25  2  0
 14 26  1  0
 26 27  2  0
 27 28  1  0
 28 29  2  0
 29 30  1  0
 29 31  1  0
 31 32  2  0
 32  9  1  0
 25 16  1  0
 32 26  1  0
 25 20  1  0
  1 33  1  0
  1 34  1  0
  1 35  1  0
  2 36  1  0
  2 37  1  0
  7 38  1  0
  7 39  1  0
  7 40  1  0
  8 41  1  0
  8 42  1  0
 15 43  1  0
 15 44  1  0
 17 45  1  0
 18 46  1  0
 19 47  1  0
 21 48  1  0
 22 49  1  0
 23 50  1  0
 24 51  1  0
 27 52  1  0
 28 53  1  0
 31 54  1  0
M  CHG  1  13  -1
M  END
>  <meeko>  (45) 
{"free_energy": -5.56, "intermolecular_energy": -7.95, "internal_energy": -1.74, "cluster_size": 13, "cluster_id": 51, "rank_in_cluster": 6}

$$$$

     RDKit          3D

 54 57  0  0  0  0  0  0  0  0999 V2000
   15.1400   39.1860   19.4130 C   0  0  0  0  0  0  0  0  0  0  0  0
   15.1990   39.5980   17.9410 C   0  0  0  0  0  0  0  0  0  0  0  0
   14.1060   39.0180   17.2480 O   0  0  0  0  0  0  0  0  0  0  0  0
   14.3140   37.9980   16.3890 C   0  0  0  0  0  0  0  0  0  0  0  0
   14.1240   38.0840   15.1750 O   0  0  0  0  0  0  0  0  0  0  0  0
   14.7720   36.8640   17.0740 N   0  0  0  0  0  0  0  0  0  0  0  0
   16.1710   36.4280   17.0130 C   0  0  0  0  0  0  0  0  0  0  0  0
   13.8580   36.0340   17.8700 C   0  0  0  0  0  0  0  0  0  0  0  0
   12.4310   36.1250   17.3820 C   0  0  0  0  0  0  0  0  0  0  0  0
   11.4690   37.0710   17.6900 C   0  0  0  0  0  0  0  0  0  0  0  0
   11.5690   38.2860   18.5570 C   0  0  0  0  0  0  0  0  0  0  0  0
   12.1080   38.1800   19.6790 O   0  0  0  0  0  0  0  0  0  0  0  0
   11.1040   39.3820   18.1730 O   0  0  0  0  0  1  0  0  0  0  0  0
   10.2620   36.7160   17.0510 N   0  0  0  0  0  0  0  0  0  0  0  0
    8.9760   37.4190   17.0770 C   0  0  0  0  0  0  0  0  0  0  0  0
    7.9230   36.8040   18.0080 C   0  0  0  0  0  0  0  0  0  0  0  0
    7.1840   35.6610   17.6130 C   0  0  0  0  0  0  0  0  0  0  0  0
    6.2190   35.0940   18.4630 C   0  0  0  0  0  0  0  0  0  0  0  0
    5.9720   35.6620   19.7230 C   0  0  0  0  0  0  0  0  0  0  0  0
    6.6910   36.7990   20.1370 C   0  0  0  0  0  0  0  0  0  0  0  0
    6.4290   37.3560   21.4060 C   0  0  0  0  0  0  0  0  0  0  0  0
    7.1350   38.4920   21.8400 C   0  0  0  0  0  0  0  0  0  0  0  0
    8.1060   39.0730   21.0050 C   0  0  0  0  0  0  0  0  0  0  0  0
    8.3720   38.5220   19.7370 C   0  0  0  0  0  0  0  0  0  0  0  0
    7.6700   37.3780   19.2840 C   0  0  0  0  0  0  0  0  0  0  0  0
   10.4520   35.5410   16.3350 C   0  0  0  0  0  0  0  0  0  0  0  0
    9.5740   34.7680   15.5470 C   0  0  0  0  0  0  0  0  0  0  0  0
   10.0400   33.6040   14.9140 C   0  0  0  0  0  0  0  0  0  0  0  0
   11.3830   33.2170   15.0700 C   0  0  0  0  0  0  0  0  0  0  0  0
   11.8400   32.0980   14.4590 F   0  0  0  0  0  0  0  0  0  0  0  0
   12.2530   33.9920   15.8610 C   0  0  0  0  0  0  0  0  0  0  0  0
   11.8100   35.1660   16.5170 C   0  0  0  0  0  0  0  0  0  0  0  0
   15.2673   40.0751   20.0480 H   0  0  0  0  0  0  0  0  0  0  0  0
   14.1660   38.7206   19.6248 H   0  0  0  0  0  0  0  0  0  0  0  0
   15.9442   38.4660   19.6248 H   0  0  0  0  0  0  0  0  0  0  0  0
   15.1434   40.6939   17.8636 H   0  0  0  0  0  0  0  0  0  0  0  0
   16.1434   39.2488   17.4981 H   0  0  0  0  0  0  0  0  0  0  0  0
   16.5619   36.3062   18.0339 H   0  0  0  0  0  0  0  0  0  0  0  0
   16.2329   35.4679   16.4797 H   0  0  0  0  0  0  0  0  0  0  0  0
   16.7674   37.1829   16.4797 H   0  0  0  0  0  0  0  0  0  0  0  0
   14.1870   34.9862   17.8085 H   0  0  0  0  0  0  0  0  0  0  0  0
   13.8841   36.4024   18.9062 H   0  0  0  0  0  0  0  0  0  0  0  0
    9.1585   38.4535   17.4035 H   0  0  0  0  0  0  0  0  0  0  0  0
    8.5658   37.3501   16.0587 H   0  0  0  0  0  0  0  0  0  0  0  0
    7.3685   35.2109   16.6264 H   0  0  0  0  0  0  0  0  0  0  0  0
    5.6570   34.2049   18.1410 H   0  0  0  0  0  0  0  0  0  0  0  0
    5.2159   35.2180   20.3872 H   0  0  0  0  0  0  0  0  0  0  0  0
    5.6697   36.9002   22.0585 H   0  0  0  0  0  0  0  0  0  0  0  0
    6.9283   38.9250   22.8299 H   0  0  0  0  0  0  0  0  0  0  0  0
    8.6596   39.9611   21.3437 H   0  0  0  0  0  0  0  0  0  0  0  0
    9.1329   38.9847   19.0913 H   0  0  0  0  0  0  0  0  0  0  0  0
    8.5249   35.0766   15.4283 H   0  0  0  0  0  0  0  0  0  0  0  0
    9.3580   32.9982   14.2994 H   0  0  0  0  0  0  0  0  0  0  0  0
   13.3014   33.6779   15.9718 H   0  0  0  0  0  0  0  0  0  0  0  0
  1  2  1  0
  2  3  1  0
  3  4  1  0
  4  5  2  0
  4  6  1  0
  6  7  1  0
  6  8  1  0
  8  9  1  0
  9 10  2  0
 10 11  1  0
 11 12  2  0
 11 13  1  0
 10 14  1  0
 14 15  1  0
 15 16  1  0
 16 17  2  0
 17 18  1  0
 18 19  2  0
 19 20  1  0
 20 21  2  0
 21 22  1  0
 22 23  2  0
 23 24  1  0
 24 25  2  0
 14 26  1  0
 26 27  2  0
 27 28  1  0
 28 29  2  0
 29 30  1  0
 29 31  1  0
 31 32  2  0
 32  9  1  0
 25 16  1  0
 32 26  1  0
 25 20  1  0
  1 33  1  0
  1 34  1  0
  1 35  1  0
  2 36  1  0
  2 37  1  0
  7 38  1  0
  7 39  1  0
  7 40  1  0
  8 41  1  0
  8 42  1  0
 15 43  1  0
 15 44  1  0
 17 45  1  0
 18 46  1  0
 19 47  1  0
 21 48  1  0
 22 49  1  0
 23 50  1  0
 24 51  1  0
 27 52  1  0
 28 53  1  0
 31 54  1  0
M  CHG  1  13  -1
M  END
>  <meeko>  (46) 
{"free_energy": -4.44, "intermolecular_energy": -6.82, "internal_energy": -2.04, "cluster_size": 9, "cluster_id": 103, "rank_in_cluster": 7}

$$$$

     RDKit          3D

 54 57  0  0  0  0  0  0  0  0999 V2000
   16.4530   37.6620   15.5280 C   0  0  0  0  0  0  0  0  0  0  0  0
   15.8620   39.0080   15.1010 C   0  0  0  0  0  0  0  0  0  0  0  0
   14.7170   38.7800   14.2960 O   0  0  0  0  0  0  0  0  0  0  0  0
   13.4950   38.7020   14.8650 C   0  0  0  0  0  0  0  0  0  0  0  0
   12.9790   37.6410   15.2210 O   0  0  0  0  0  0  0  0  0  0  0  0
   12.9280   39.9770   14.9890 N   0  0  0  0  0  0  0  0  0  0  0  0
   12.8410   40.9060   13.8570 C   0  0  0  0  0  0  0  0  0  0  0  0
   12.4150   40.4610   16.2780 C   0  0  0  0  0  0  0  0  0  0  0  0
   12.1780   39.3360   17.2580 C   0  0  0  0  0  0  0  0  0  0  0  0
   10.9860   38.7240   17.6050 C   0  0  0  0  0  0  0  0  0  0  0  0
    9.6030   38.9710   17.0910 C   0  0  0  0  0  0  0  0  0  0  0  0
    8.8280   39.6800   17.7690 O   0  0  0  0  0  0  0  0  0  0  0  0
    9.2240   38.4620   16.0130 O   0  0  0  0  0  1  0  0  0  0  0  0
   11.2420   37.7670   18.6090 N   0  0  0  0  0  0  0  0  0  0  0  0
   10.2930   36.8700   19.2760 C   0  0  0  0  0  0  0  0  0  0  0  0
    9.2120   36.2800   18.3600 C   0  0  0  0  0  0  0  0  0  0  0  0
    7.8380   36.5200   18.6110 C   0  0  0  0  0  0  0  0  0  0  0  0
    6.8450   35.9810   17.7750 C   0  0  0  0  0  0  0  0  0  0  0  0
    7.2070   35.1890   16.6740 C   0  0  0  0  0  0  0  0  0  0  0  0
    8.5660   34.9350   16.4050 C   0  0  0  0  0  0  0  0  0  0  0  0
    8.9110   34.1370   15.2950 C   0  0  0  0  0  0  0  0  0  0  0  0
   10.2620   33.8690   15.0070 C   0  0  0  0  0  0  0  0  0  0  0  0
   11.2700   34.4000   15.8300 C   0  0  0  0  0  0  0  0  0  0  0  0
   10.9320   35.1970   16.9410 C   0  0  0  0  0  0  0  0  0  0  0  0
    9.5760   35.4770   17.2450 C   0  0  0  0  0  0  0  0  0  0  0  0
   12.5990   37.7660   18.9060 C   0  0  0  0  0  0  0  0  0  0  0  0
   13.3580   37.0190   19.8300 C   0  0  0  0  0  0  0  0  0  0  0  0
   14.7460   37.2170   19.9180 C   0  0  0  0  0  0  0  0  0  0  0  0
   15.3710   38.1580   19.0820 C   0  0  0  0  0  0  0  0  0  0  0  0
   16.7090   38.3500   19.1590 F   0  0  0  0  0  0  0  0  0  0  0  0
   14.6050   38.9020   18.1630 C   0  0  0  0  0  0  0  0  0  0  0  0
   13.2040   38.7300   18.0560 C   0  0  0  0  0  0  0  0  0  0  0  0
   16.4783   37.6045   16.6262 H   0  0  0  0  0  0  0  0  0  0  0  0
   15.8303   36.8461   15.1323 H   0  0  0  0  0  0  0  0  0  0  0  0
   17.4751   37.5682   15.1323 H   0  0  0  0  0  0  0  0  0  0  0  0
   15.5756   39.5838   15.9934 H   0  0  0  0  0  0  0  0  0  0  0  0
   16.6101   39.5749   14.5275 H   0  0  0  0  0  0  0  0  0  0  0  0
   12.7446   41.9350   14.2337 H   0  0  0  0  0  0  0  0  0  0  0  0
   13.7508   40.8235   13.2442 H   0  0  0  0  0  0  0  0  0  0  0  0
   11.9623   40.6561   13.2442 H   0  0  0  0  0  0  0  0  0  0  0  0
   13.1468   41.1591   16.7106 H   0  0  0  0  0  0  0  0  0  0  0  0
   11.4501   40.9555   16.0926 H   0  0  0  0  0  0  0  0  0  0  0  0
   10.8609   36.0369   19.7157 H   0  0  0  0  0  0  0  0  0  0  0  0
    9.7655   37.4790   20.0249 H   0  0  0  0  0  0  0  0  0  0  0  0
    7.5443   37.1372   19.4728 H   0  0  0  0  0  0  0  0  0  0  0  0
    5.7834   36.1799   17.9836 H   0  0  0  0  0  0  0  0  0  0  0  0
    6.4290   34.7666   16.0211 H   0  0  0  0  0  0  0  0  0  0  0  0
    8.1210   33.7223   14.6517 H   0  0  0  0  0  0  0  0  0  0  0  0
   10.5284   33.2459   14.1405 H   0  0  0  0  0  0  0  0  0  0  0  0
   12.3267   34.1924   15.6056 H   0  0  0  0  0  0  0  0  0  0  0  0
   11.7286   35.6065   17.5795 H   0  0  0  0  0  0  0  0  0  0  0  0
   12.8642   36.2824   20.4809 H   0  0  0  0  0  0  0  0  0  0  0  0
   15.3416   36.6375   20.6388 H   0  0  0  0  0  0  0  0  0  0  0  0
   15.1074   39.6338   17.5133 H   0  0  0  0  0  0  0  0  0  0  0  0
  1  2  1  0
  2  3  1  0
  3  4  1  0
  4  5  2  0
  4  6  1  0
  6  7  1  0
  6  8  1  0
  8  9  1  0
  9 10  2  0
 10 11  1  0
 11 12  2  0
 11 13  1  0
 10 14  1  0
 14 15  1  0
 15 16  1  0
 16 17  2  0
 17 18  1  0
 18 19  2  0
 19 20  1  0
 20 21  2  0
 21 22  1  0
 22 23  2  0
 23 24  1  0
 24 25  2  0
 14 26  1  0
 26 27  2  0
 27 28  1  0
 28 29  2  0
 29 30  1  0
 29 31  1  0
 31 32  2  0
 32  9  1  0
 25 16  1  0
 32 26  1  0
 25 20  1  0
  1 33  1  0
  1 34  1  0
  1 35  1  0
  2 36  1  0
  2 37  1  0
  7 38  1  0
  7 39  1  0
  7 40  1  0
  8 41  1  0
  8 42  1  0
 15 43  1  0
 15 44  1  0
 17 45  1  0
 18 46  1  0
 19 47  1  0
 21 48  1  0
 22 49  1  0
 23 50  1  0
 24 51  1  0
 27 52  1  0
 28 53  1  0
 31 54  1  0
M  CHG  1  13  -1
M  END
>  <meeko>  (47) 
{"free_energy": -4.36, "intermolecular_energy": -6.75, "internal_energy": -2.44, "cluster_size": 11, "cluster_id": 147, "rank_in_cluster": 8}

$$$$

     RDKit          3D

 54 57  0  0  0  0  0  0  0  0999 V2000
    9.5870   40.2600    9.4880 C   0  0  0  0  0  0  0  0  0  0  0  0
   10.4310   41.5370    9.5310 C   0  0  0  0  0  0  0  0  0  0  0  0
   11.6620   41.2610   10.1800 O   0  0  0  0  0  0  0  0  0  0  0  0
   11.6770   40.9220   11.4870 C   0  0  0  0  0  0  0  0  0  0  0  0
   12.3630   40.0050   11.9410 O   0  0  0  0  0  0  0  0  0  0  0  0
   10.8210   41.7540   12.2200 N   0  0  0  0  0  0  0  0  0  0  0  0
   11.1610   43.1480   12.5250 C   0  0  0  0  0  0  0  0  0  0  0  0
    9.5440   41.2570   12.7490 C   0  0  0  0  0  0  0  0  0  0  0  0
    9.7220   40.0450   13.6320 C   0  0  0  0  0  0  0  0  0  0  0  0
    9.9230   39.9920   15.0000 C   0  0  0  0  0  0  0  0  0  0  0  0
    9.9850   41.1040   15.9990 C   0  0  0  0  0  0  0  0  0  0  0  0
    8.9600   41.7910   16.1980 O   0  0  0  0  0  0  0  0  0  0  0  0
   11.0480   41.3530   16.6090 O   0  0  0  0  0  1  0  0  0  0  0  0
   10.1010   38.6450   15.3810 N   0  0  0  0  0  0  0  0  0  0  0  0
   10.3320   38.1010   16.7220 C   0  0  0  0  0  0  0  0  0  0  0  0
    9.0850   38.0310   17.6140 C   0  0  0  0  0  0  0  0  0  0  0  0
    8.7760   39.0810   18.5140 C   0  0  0  0  0  0  0  0  0  0  0  0
    7.6350   39.0210   19.3330 C   0  0  0  0  0  0  0  0  0  0  0  0
    6.7810   37.9080   19.2670 C   0  0  0  0  0  0  0  0  0  0  0  0
    7.0670   36.8520   18.3820 C   0  0  0  0  0  0  0  0  0  0  0  0
    6.1980   35.7420   18.3290 C   0  0  0  0  0  0  0  0  0  0  0  0
    6.4640   34.6750   17.4530 C   0  0  0  0  0  0  0  0  0  0  0  0
    7.6000   34.7160   16.6250 C   0  0  0  0  0  0  0  0  0  0  0  0
    8.4720   35.8210   16.6730 C   0  0  0  0  0  0  0  0  0  0  0  0
    8.2190   36.9050   17.5500 C   0  0  0  0  0  0  0  0  0  0  0  0
   10.0150   37.8350   14.2560 C   0  0  0  0  0  0  0  0  0  0  0  0
   10.1340   36.4400   14.0900 C   0  0  0  0  0  0  0  0  0  0  0  0
    9.9920   35.8710   12.8140 C   0  0  0  0  0  0  0  0  0  0  0  0
    9.7290   36.6980   11.7080 C   0  0  0  0  0  0  0  0  0  0  0  0
    9.5870   36.1560   10.4750 F   0  0  0  0  0  0  0  0  0  0  0  0
    9.6150   38.0910   11.8800 C   0  0  0  0  0  0  0  0  0  0  0  0
    9.7610   38.6940   13.1530 C   0  0  0  0  0  0  0  0  0  0  0  0
    9.3689   39.9299   10.5144 H   0  0  0  0  0  0  0  0  0  0  0  0
    8.6437   40.4616    8.9594 H   0  0  0  0  0  0  0  0  0  0  0  0
   10.1422   39.4712    8.9594 H   0  0  0  0  0  0  0  0  0  0  0  0
   10.6255   41.8841    8.5055 H   0  0  0  0  0  0  0  0  0  0  0  0
    9.8895   42.3194   10.0830 H   0  0  0  0  0  0  0  0  0  0  0  0
   11.1949   43.2869   13.6157 H   0  0  0  0  0  0  0  0  0  0  0  0
   12.1441   43.3884   12.0940 H   0  0  0  0  0  0  0  0  0  0  0  0
   10.3990   43.8140   12.0940 H   0  0  0  0  0  0  0  0  0  0  0  0
    9.0696   42.0565   13.3371 H   0  0  0  0  0  0  0  0  0  0  0  0
    8.9180   40.9614   11.8942 H   0  0  0  0  0  0  0  0  0  0  0  0
   10.7321   37.0821   16.6133 H   0  0  0  0  0  0  0  0  0  0  0  0
   11.0290   38.7914   17.2194 H   0  0  0  0  0  0  0  0  0  0  0  0
    9.4392   39.9566   18.5727 H   0  0  0  0  0  0  0  0  0  0  0  0
    7.4111   39.8458   20.0255 H   0  0  0  0  0  0  0  0  0  0  0  0
    5.8879   37.8617   19.9076 H   0  0  0  0  0  0  0  0  0  0  0  0
    5.3087   35.7112   18.9757 H   0  0  0  0  0  0  0  0  0  0  0  0
    5.7852   33.8102   17.4153 H   0  0  0  0  0  0  0  0  0  0  0  0
    7.8081   33.8826   15.9379 H   0  0  0  0  0  0  0  0  0  0  0  0
    9.3590   35.8428   16.0227 H   0  0  0  0  0  0  0  0  0  0  0  0
   10.3379   35.7977   14.9594 H   0  0  0  0  0  0  0  0  0  0  0  0
   10.0861   34.7832   12.6805 H   0  0  0  0  0  0  0  0  0  0  0  0
    9.4078   38.7253   11.0055 H   0  0  0  0  0  0  0  0  0  0  0  0
  1  2  1  0
  2  3  1  0
  3  4  1  0
  4  5  2  0
  4  6  1  0
  6  7  1  0
  6  8  1  0
  8  9  1  0
  9 10  2  0
 10 11  1  0
 11 12  2  0
 11 13  1  0
 10 14  1  0
 14 15  1  0
 15 16  1  0
 16 17  2  0
 17 18  1  0
 18 19  2  0
 19 20  1  0
 20 21  2  0
 21 22  1  0
 22 23  2  0
 23 24  1  0
 24 25  2  0
 14 26  1  0
 26 27  2  0
 27 28  1  0
 28 29  2  0
 29 30  1  0
 29 31  1  0
 31 32  2  0
 32  9  1  0
 25 16  1  0
 32 26  1  0
 25 20  1  0
  1 33  1  0
  1 34  1  0
  1 35  1  0
  2 36  1  0
  2 37  1  0
  7 38  1  0
  7 39  1  0
  7 40  1  0
  8 41  1  0
  8 42  1  0
 15 43  1  0
 15 44  1  0
 17 45  1  0
 18 46  1  0
 19 47  1  0
 21 48  1  0
 22 49  1  0
 23 50  1  0
 24 51  1  0
 27 52  1  0
 28 53  1  0
 31 54  1  0
M  CHG  1  13  -1
M  END
>  <meeko>  (48) 
{"free_energy": -5.2, "intermolecular_energy": -7.59, "internal_energy": -2.17, "cluster_size": 121, "cluster_id": 34, "rank_in_cluster": 72}

$$$$

     RDKit          3D

 54 57  0  0  0  0  0  0  0  0999 V2000
   12.2160   41.8810    9.1000 C   0  0  0  0  0  0  0  0  0  0  0  0
   13.2760   41.1060    8.3140 C   0  0  0  0  0  0  0  0  0  0  0  0
   14.2630   40.6230    9.2110 O   0  0  0  0  0  0  0  0  0  0  0  0
   14.5110   39.2980    9.2940 C   0  0  0  0  0  0  0  0  0  0  0  0
   15.2060   38.6870    8.4800 O   0  0  0  0  0  0  0  0  0  0  0  0
   13.8810   38.7490   10.4180 N   0  0  0  0  0  0  0  0  0  0  0  0
   13.7600   37.3010   10.6160 C   0  0  0  0  0  0  0  0  0  0  0  0
   13.2790   39.6060   11.4480 C   0  0  0  0  0  0  0  0  0  0  0  0
   12.3840   38.8310   12.3860 C   0  0  0  0  0  0  0  0  0  0  0  0
   12.5370   38.6080   13.7440 C   0  0  0  0  0  0  0  0  0  0  0  0
   13.6020   39.0930   14.6760 C   0  0  0  0  0  0  0  0  0  0  0  0
   13.4210   40.1680   15.2880 O   0  0  0  0  0  0  0  0  0  0  0  0
   14.6610   38.4450   14.8250 O   0  0  0  0  0  1  0  0  0  0  0  0
   11.4890   37.7740   14.1880 N   0  0  0  0  0  0  0  0  0  0  0  0
   11.2310   37.2790   15.5430 C   0  0  0  0  0  0  0  0  0  0  0  0
   10.5410   35.9110   15.6100 C   0  0  0  0  0  0  0  0  0  0  0  0
   11.1860   34.7470   15.1220 C   0  0  0  0  0  0  0  0  0  0  0  0
   10.5580   33.4920   15.1810 C   0  0  0  0  0  0  0  0  0  0  0  0
    9.2700   33.3760   15.7280 C   0  0  0  0  0  0  0  0  0  0  0  0
    8.6070   34.5170   16.2180 C   0  0  0  0  0  0  0  0  0  0  0  0
    7.3130   34.3830   16.7640 C   0  0  0  0  0  0  0  0  0  0  0  0
    6.6320   35.5090   17.2590 C   0  0  0  0  0  0  0  0  0  0  0  0
    7.2450   36.7740   17.2100 C   0  0  0  0  0  0  0  0  0  0  0  0
    8.5360   36.9150   16.6660 C   0  0  0  0  0  0  0  0  0  0  0  0
    9.2360   35.7910   16.1630 C   0  0  0  0  0  0  0  0  0  0  0  0
   10.6650   37.4620   13.1140 C   0  0  0  0  0  0  0  0  0  0  0  0
    9.5060   36.6650   13.0190 C   0  0  0  0  0  0  0  0  0  0  0  0
    8.8510   36.5250   11.7850 C   0  0  0  0  0  0  0  0  0  0  0  0
    9.3550   37.1840   10.6500 C   0  0  0  0  0  0  0  0  0  0  0  0
    8.7260   37.0570    9.4580 F   0  0  0  0  0  0  0  0  0  0  0  0
   10.5150   37.9760   10.7520 C   0  0  0  0  0  0  0  0  0  0  0  0
   11.2010   38.1310   11.9810 C   0  0  0  0  0  0  0  0  0  0  0  0
   12.3920   41.7523   10.1782 H   0  0  0  0  0  0  0  0  0  0  0  0
   12.2771   42.9489    8.8434 H   0  0  0  0  0  0  0  0  0  0  0  0
   11.2169   41.4988    8.8434 H   0  0  0  0  0  0  0  0  0  0  0  0
   12.8032   40.2584    7.7963 H   0  0  0  0  0  0  0  0  0  0  0  0
   13.7444   41.7699    7.5725 H   0  0  0  0  0  0  0  0  0  0  0  0
   13.7414   37.0785   11.6931 H   0  0  0  0  0  0  0  0  0  0  0  0
   12.8289   36.9440   10.1517 H   0  0  0  0  0  0  0  0  0  0  0  0
   14.6189   36.7944   10.1517 H   0  0  0  0  0  0  0  0  0  0  0  0
   14.0839   40.0746   12.0333 H   0  0  0  0  0  0  0  0  0  0  0  0
   12.6611   40.3607   10.9394 H   0  0  0  0  0  0  0  0  0  0  0  0
   12.1946   37.2018   16.0679 H   0  0  0  0  0  0  0  0  0  0  0  0
   10.5387   37.9969   16.0072 H   0  0  0  0  0  0  0  0  0  0  0  0
   12.1945   34.8278   14.6902 H   0  0  0  0  0  0  0  0  0  0  0  0
   11.0754   32.5998   14.7986 H   0  0  0  0  0  0  0  0  0  0  0  0
    8.7787   32.3929   15.7736 H   0  0  0  0  0  0  0  0  0  0  0  0
    6.8348   33.3931   16.8026 H   0  0  0  0  0  0  0  0  0  0  0  0
    5.6229   35.4010   17.6833 H   0  0  0  0  0  0  0  0  0  0  0  0
    6.7142   37.6559   17.5979 H   0  0  0  0  0  0  0  0  0  0  0  0
    9.0061   37.9089   16.6312 H   0  0  0  0  0  0  0  0  0  0  0  0
    9.1152   36.1533   13.9109 H   0  0  0  0  0  0  0  0  0  0  0  0
    7.9475   35.9025   11.7066 H   0  0  0  0  0  0  0  0  0  0  0  0
   10.8972   38.4863    9.8556 H   0  0  0  0  0  0  0  0  0  0  0  0
  1  2  1  0
  2  3  1  0
  3  4  1  0
  4  5  2  0
  4  6  1  0
  6  7  1  0
  6  8  1  0
  8  9  1  0
  9 10  2  0
 10 11  1  0
 11 12  2  0
 11 13  1  0
 10 14  1  0
 14 15  1  0
 15 16  1  0
 16 17  2  0
 17 18  1  0
 18 19  2  0
 19 20  1  0
 20 21  2  0
 21 22  1  0
 22 23  2  0
 23 24  1  0
 24 25  2  0
 14 26  1  0
 26 27  2  0
 27 28  1  0
 28 29  2  0
 29 30  1  0
 29 31  1  0
 31 32  2  0
 32  9  1  0
 25 16  1  0
 32 26  1  0
 25 20  1  0
  1 33  1  0
  1 34  1  0
  1 35  1  0
  2 36  1  0
  2 37  1  0
  7 38  1  0
  7 39  1  0
  7 40  1  0
  8 41  1  0
  8 42  1  0
 15 43  1  0
 15 44  1  0
 17 45  1  0
 18 46  1  0
 19 47  1  0
 21 48  1  0
 22 49  1  0
 23 50  1  0
 24 51  1  0
 27 52  1  0
 28 53  1  0
 31 54  1  0
M  CHG  1  13  -1
M  END
>  <meeko>  (49) 
{"free_energy": -6.12, "intermolecular_energy": -8.5, "internal_energy": -1.54, "cluster_size": 191, "cluster_id": 13, "rank_in_cluster": 38}

$$$$

     RDKit          3D

 54 57  0  0  0  0  0  0  0  0999 V2000
   13.3310   42.1600    6.9700 C   0  0  0  0  0  0  0  0  0  0  0  0
   13.7530   40.7030    7.1780 C   0  0  0  0  0  0  0  0  0  0  0  0
   13.6770   40.3880    8.5590 O   0  0  0  0  0  0  0  0  0  0  0  0
   12.5200   39.9360    9.0870 C   0  0  0  0  0  0  0  0  0  0  0  0
   11.9780   38.8870    8.7350 O   0  0  0  0  0  0  0  0  0  0  0  0
   12.0520   40.8160   10.0720 N   0  0  0  0  0  0  0  0  0  0  0  0
   11.2110   41.9730    9.7480 C   0  0  0  0  0  0  0  0  0  0  0  0
   12.4090   40.6370   11.4850 C   0  0  0  0  0  0  0  0  0  0  0  0
   11.6500   39.5000   12.1280 C   0  0  0  0  0  0  0  0  0  0  0  0
   11.9460   38.8060   13.2880 C   0  0  0  0  0  0  0  0  0  0  0  0
   13.0730   38.9990   14.2530 C   0  0  0  0  0  0  0  0  0  0  0  0
   13.3470   38.0750   15.0490 O   0  0  0  0  0  0  0  0  0  0  0  0
   13.7150   40.0710   14.2760 O   0  0  0  0  0  1  0  0  0  0  0  0
   10.9880   37.7850   13.4630 N   0  0  0  0  0  0  0  0  0  0  0  0
   10.8890   36.8060   14.5500 C   0  0  0  0  0  0  0  0  0  0  0  0
   10.0440   37.2570   15.7490 C   0  0  0  0  0  0  0  0  0  0  0  0
   10.2600   38.5200   16.3560 C   0  0  0  0  0  0  0  0  0  0  0  0
    9.4880   38.9370   17.4530 C   0  0  0  0  0  0  0  0  0  0  0  0
    8.4870   38.0980   17.9670 C   0  0  0  0  0  0  0  0  0  0  0  0
    8.2540   36.8390   17.3830 C   0  0  0  0  0  0  0  0  0  0  0  0
    7.2440   36.0090   17.9120 C   0  0  0  0  0  0  0  0  0  0  0  0
    6.9940   34.7460   17.3450 C   0  0  0  0  0  0  0  0  0  0  0  0
    7.7550   34.3110   16.2460 C   0  0  0  0  0  0  0  0  0  0  0  0
    8.7650   35.1350   15.7130 C   0  0  0  0  0  0  0  0  0  0  0  0
    9.0300   36.4090   16.2720 C   0  0  0  0  0  0  0  0  0  0  0  0
   10.0790   37.8250   12.4150 C   0  0  0  0  0  0  0  0  0  0  0  0
    8.9560   37.0270   12.1130 C   0  0  0  0  0  0  0  0  0  0  0  0
    8.1900   37.2990   10.9680 C   0  0  0  0  0  0  0  0  0  0  0  0
    8.5480   38.3690   10.1290 C   0  0  0  0  0  0  0  0  0  0  0  0
    7.8110   38.6390    9.0250 F   0  0  0  0  0  0  0  0  0  0  0  0
    9.6720   39.1590   10.4340 C   0  0  0  0  0  0  0  0  0  0  0  0
   10.4680   38.9050   11.5780 C   0  0  0  0  0  0  0  0  0  0  0  0
   13.1907   42.6443    7.9477 H   0  0  0  0  0  0  0  0  0  0  0  0
   14.1122   42.6911    6.4064 H   0  0  0  0  0  0  0  0  0  0  0  0
   12.3868   42.1914    6.4064 H   0  0  0  0  0  0  0  0  0  0  0  0
   13.0811   40.0410    6.6121 H   0  0  0  0  0  0  0  0  0  0  0  0
   14.7847   40.5628    6.8232 H   0  0  0  0  0  0  0  0  0  0  0  0
   10.8660   42.4476   10.6785 H   0  0  0  0  0  0  0  0  0  0  0  0
   11.7946   42.6977    9.1613 H   0  0  0  0  0  0  0  0  0  0  0  0
   10.3416   41.6415    9.1613 H   0  0  0  0  0  0  0  0  0  0  0  0
   13.4865   40.4268   11.5538 H   0  0  0  0  0  0  0  0  0  0  0  0
   12.1456   41.5621   12.0187 H   0  0  0  0  0  0  0  0  0  0  0  0
   10.4419   35.8871   14.1429 H   0  0  0  0  0  0  0  0  0  0  0  0
   11.9113   36.6610   14.9294 H   0  0  0  0  0  0  0  0  0  0  0  0
   11.0440   39.1834   15.9619 H   0  0  0  0  0  0  0  0  0  0  0  0
    9.6680   39.9215   17.9094 H   0  0  0  0  0  0  0  0  0  0  0  0
    7.8841   38.4249   18.8271 H   0  0  0  0  0  0  0  0  0  0  0  0
    6.6490   36.3507   18.7718 H   0  0  0  0  0  0  0  0  0  0  0  0
    6.2056   34.1010   17.7603 H   0  0  0  0  0  0  0  0  0  0  0  0
    7.5610   33.3239   15.8010 H   0  0  0  0  0  0  0  0  0  0  0  0
    9.3547   34.7852   14.8528 H   0  0  0  0  0  0  0  0  0  0  0  0
    8.6804   36.1921   12.7740 H   0  0  0  0  0  0  0  0  0  0  0  0
    7.3142   36.6780   10.7286 H   0  0  0  0  0  0  0  0  0  0  0  0
    9.9387   39.9933    9.7685 H   0  0  0  0  0  0  0  0  0  0  0  0
  1  2  1  0
  2  3  1  0
  3  4  1  0
  4  5  2  0
  4  6  1  0
  6  7  1  0
  6  8  1  0
  8  9  1  0
  9 10  2  0
 10 11  1  0
 11 12  2  0
 11 13  1  0
 10 14  1  0
 14 15  1  0
 15 16  1  0
 16 17  2  0
 17 18  1  0
 18 19  2  0
 19 20  1  0
 20 21  2  0
 21 22  1  0
 22 23  2  0
 23 24  1  0
 24 25  2  0
 14 26  1  0
 26 27  2  0
 27 28  1  0
 28 29  2  0
 29 30  1  0
 29 31  1  0
 31 32  2  0
 32  9  1  0
 25 16  1  0
 32 26  1  0
 25 20  1  0
  1 33  1  0
  1 34  1  0
  1 35  1  0
  2 36  1  0
  2 37  1  0
  7 38  1  0
  7 39  1  0
  7 40  1  0
  8 41  1  0
  8 42  1  0
 15 43  1  0
 15 44  1  0
 17 45  1  0
 18 46  1  0
 19 47  1  0
 21 48  1  0
 22 49  1  0
 23 50  1  0
 24 51  1  0
 27 52  1  0
 28 53  1  0
 31 54  1  0
M  CHG  1  13  -1
M  END
>  <meeko>  (50) 
{"free_energy": -5.74, "intermolecular_energy": -8.12, "internal_energy": -1.66, "cluster_size": 18, "cluster_id": 48, "rank_in_cluster": 3}

$$$$

     RDKit          3D

 54 57  0  0  0  0  0  0  0  0999 V2000
    7.7740   32.9070   15.0940 C   0  0  0  0  0  0  0  0  0  0  0  0
    8.9470   33.8630   14.8630 C   0  0  0  0  0  0  0  0  0  0  0  0
    8.4440   35.1580   14.5760 O   0  0  0  0  0  0  0  0  0  0  0  0
    9.1150   36.2520   14.9940 C   0  0  0  0  0  0  0  0  0  0  0  0
    8.8290   36.8720   16.0200 O   0  0  0  0  0  0  0  0  0  0  0  0
   10.1590   36.5550   14.1110 N   0  0  0  0  0  0  0  0  0  0  0  0
   11.3340   37.3300   14.5280 C   0  0  0  0  0  0  0  0  0  0  0  0
   10.1140   36.1340   12.7050 C   0  0  0  0  0  0  0  0  0  0  0  0
    9.5660   37.2140   11.8010 C   0  0  0  0  0  0  0  0  0  0  0  0
    9.5070   38.5790   12.0190 C   0  0  0  0  0  0  0  0  0  0  0  0
    9.9940   39.3800   13.1850 C   0  0  0  0  0  0  0  0  0  0  0  0
    9.2540   39.4950   14.1860 O   0  0  0  0  0  0  0  0  0  0  0  0
   11.1110   39.9400   13.1500 O   0  0  0  0  0  1  0  0  0  0  0  0
    8.8530   39.1860   10.9260 N   0  0  0  0  0  0  0  0  0  0  0  0
    8.5690   40.6070   10.7100 C   0  0  0  0  0  0  0  0  0  0  0  0
    9.6840   41.5630   11.1550 C   0  0  0  0  0  0  0  0  0  0  0  0
    9.4320   42.5760   12.1140 C   0  0  0  0  0  0  0  0  0  0  0  0
   10.4510   43.4530   12.5250 C   0  0  0  0  0  0  0  0  0  0  0  0
   11.7410   43.3350   11.9820 C   0  0  0  0  0  0  0  0  0  0  0  0
   12.0150   42.3380   11.0270 C   0  0  0  0  0  0  0  0  0  0  0  0
   13.3160   42.2340   10.4920 C   0  0  0  0  0  0  0  0  0  0  0  0
   13.6130   41.2470    9.5370 C   0  0  0  0  0  0  0  0  0  0  0  0
   12.6080   40.3590    9.1130 C   0  0  0  0  0  0  0  0  0  0  0  0
   11.3070   40.4570    9.6430 C   0  0  0  0  0  0  0  0  0  0  0  0
   10.9910   41.4460   10.6070 C   0  0  0  0  0  0  0  0  0  0  0  0
    8.4930   38.2080   10.0070 C   0  0  0  0  0  0  0  0  0  0  0  0
    7.8170   38.2820    8.7720 C   0  0  0  0  0  0  0  0  0  0  0  0
    7.5880   37.1130    8.0270 C   0  0  0  0  0  0  0  0  0  0  0  0
    8.0370   35.8750    8.5190 C   0  0  0  0  0  0  0  0  0  0  0  0
    7.8230   34.7450    7.8040 F   0  0  0  0  0  0  0  0  0  0  0  0
    8.7090   35.8090    9.7550 C   0  0  0  0  0  0  0  0  0  0  0  0
    8.9480   36.9680   10.5310 C   0  0  0  0  0  0  0  0  0  0  0  0
    7.6143   32.7769   16.1745 H   0  0  0  0  0  0  0  0  0  0  0  0
    6.8650   33.3248   14.6367 H   0  0  0  0  0  0  0  0  0  0  0  0
    7.9998   31.9324   14.6367 H   0  0  0  0  0  0  0  0  0  0  0  0
    9.5723   33.9033   15.7671 H   0  0  0  0  0  0  0  0  0  0  0  0
    9.5533   33.5063   14.0173 H   0  0  0  0  0  0  0  0  0  0  0  0
   11.3816   37.3614   15.6265 H   0  0  0  0  0  0  0  0  0  0  0  0
   12.2449   36.8549   14.1350 H   0  0  0  0  0  0  0  0  0  0  0  0
   11.2559   38.3544   14.1350 H   0  0  0  0  0  0  0  0  0  0  0  0
   11.1338   35.8826   12.3781 H   0  0  0  0  0  0  0  0  0  0  0  0
    9.4442   35.2642   12.6351 H   0  0  0  0  0  0  0  0  0  0  0  0
    8.3953   40.7613    9.6348 H   0  0  0  0  0  0  0  0  0  0  0  0
    7.6925   40.8446   11.3308 H   0  0  0  0  0  0  0  0  0  0  0  0
    8.4242   42.6774   12.5430 H   0  0  0  0  0  0  0  0  0  0  0  0
   10.2380   44.2318   13.2720 H   0  0  0  0  0  0  0  0  0  0  0  0
   12.5376   44.0222   12.3033 H   0  0  0  0  0  0  0  0  0  0  0  0
   14.1016   42.9287   10.8239 H   0  0  0  0  0  0  0  0  0  0  0  0
   14.6288   41.1690    9.1221 H   0  0  0  0  0  0  0  0  0  0  0  0
   12.8389   39.5859    8.3654 H   0  0  0  0  0  0  0  0  0  0  0  0
   10.5277   39.7582    9.3049 H   0  0  0  0  0  0  0  0  0  0  0  0
    7.4692   39.2540    8.3921 H   0  0  0  0  0  0  0  0  0  0  0  0
    7.0600   37.1662    7.0635 H   0  0  0  0  0  0  0  0  0  0  0  0
    9.0563   34.8334   10.1259 H   0  0  0  0  0  0  0  0  0  0  0  0
  1  2  1  0
  2  3  1  0
  3  4  1  0
  4  5  2  0
  4  6  1  0
  6  7  1  0
  6  8  1  0
  8  9  1  0
  9 10  2  0
 10 11  1  0
 11 12  2  0
 11 13  1  0
 10 14  1  0
 14 15  1  0
 15 16  1  0
 16 17  2  0
 17 18  1  0
 18 19  2  0
 19 20  1  0
 20 21  2  0
 21 22  1  0
 22 23  2  0
 23 24  1  0
 24 25  2  0
 14 26  1  0
 26 27  2  0
 27 28  1  0
 28 29  2  0
 29 30  1  0
 29 31  1  0
 31 32  2  0
 32  9  1  0
 25 16  1  0
 32 26  1  0
 25 20  1  0
  1 33  1  0
  1 34  1  0
  1 35  1  0
  2 36  1  0
  2 37  1  0
  7 38  1  0
  7 39  1  0
  7 40  1  0
  8 41  1  0
  8 42  1  0
 15 43  1  0
 15 44  1  0
 17 45  1  0
 18 46  1  0
 19 47  1  0
 21 48  1  0
 22 49  1  0
 23 50  1  0
 24 51  1  0
 27 52  1  0
 28 53  1  0
 31 54  1  0
M  CHG  1  13  -1
M  END
>  <meeko>  (51) 
{"free_energy": -6.85, "intermolecular_energy": -9.24, "internal_energy": -1.48, "cluster_size": 318, "cluster_id": 5, "rank_in_cluster": 29}

$$$$

     RDKit          3D

 54 57  0  0  0  0  0  0  0  0999 V2000
   12.5980   41.0060   13.0270 C   0  0  0  0  0  0  0  0  0  0  0  0
   12.2470   42.3980   12.4960 C   0  0  0  0  0  0  0  0  0  0  0  0
   10.8940   42.6880   12.8040 O   0  0  0  0  0  0  0  0  0  0  0  0
    9.9640   41.7100   12.7540 C   0  0  0  0  0  0  0  0  0  0  0  0
    9.8050   40.8810   13.6520 O   0  0  0  0  0  0  0  0  0  0  0  0
    9.2300   41.7890   11.5640 N   0  0  0  0  0  0  0  0  0  0  0  0
    7.7630   41.7990   11.5520 C   0  0  0  0  0  0  0  0  0  0  0  0
    9.8990   41.8380   10.2580 C   0  0  0  0  0  0  0  0  0  0  0  0
   10.8640   40.6920   10.0660 C   0  0  0  0  0  0  0  0  0  0  0  0
   12.1260   40.7070    9.4990 C   0  0  0  0  0  0  0  0  0  0  0  0
   12.9110   41.8560    8.9490 C   0  0  0  0  0  0  0  0  0  0  0  0
   13.8240   42.3480    9.6450 O   0  0  0  0  0  0  0  0  0  0  0  0
   12.6440   42.3270    7.8210 O   0  0  0  0  0  1  0  0  0  0  0  0
   12.6300   39.3890    9.4760 N   0  0  0  0  0  0  0  0  0  0  0  0
   13.9260   38.9180    8.9800 C   0  0  0  0  0  0  0  0  0  0  0  0
   15.0070   38.7530   10.0570 C   0  0  0  0  0  0  0  0  0  0  0  0
   15.5810   39.8840   10.6900 C   0  0  0  0  0  0  0  0  0  0  0  0
   16.5710   39.7370   11.6760 C   0  0  0  0  0  0  0  0  0  0  0  0
   17.0080   38.4550   12.0470 C   0  0  0  0  0  0  0  0  0  0  0  0
   16.4550   37.3160   11.4320 C   0  0  0  0  0  0  0  0  0  0  0  0
   16.9060   36.0360   11.8170 C   0  0  0  0  0  0  0  0  0  0  0  0
   16.3680   34.8850   11.2160 C   0  0  0  0  0  0  0  0  0  0  0  0
   15.3750   35.0110   10.2280 C   0  0  0  0  0  0  0  0  0  0  0  0
   14.9210   36.2850    9.8380 C   0  0  0  0  0  0  0  0  0  0  0  0
   15.4520   37.4560   10.4340 C   0  0  0  0  0  0  0  0  0  0  0  0
   11.6890   38.5300   10.0280 C   0  0  0  0  0  0  0  0  0  0  0  0
   11.6930   37.1330   10.2250 C   0  0  0  0  0  0  0  0  0  0  0  0
   10.5890   36.5080   10.8280 C   0  0  0  0  0  0  0  0  0  0  0  0
    9.4860   37.2800   11.2340 C   0  0  0  0  0  0  0  0  0  0  0  0
    8.4210   36.6830   11.8190 F   0  0  0  0  0  0  0  0  0  0  0  0
    9.4890   38.6740   11.0310 C   0  0  0  0  0  0  0  0  0  0  0  0
   10.5830   39.3310   10.4190 C   0  0  0  0  0  0  0  0  0  0  0  0
   12.5941   41.0214   14.1269 H   0  0  0  0  0  0  0  0  0  0  0  0
   11.8552   40.2785   12.6679 H   0  0  0  0  0  0  0  0  0  0  0  0
   13.5970   40.7177   12.6679 H   0  0  0  0  0  0  0  0  0  0  0  0
   12.9002   43.1469   12.9677 H   0  0  0  0  0  0  0  0  0  0  0  0
   12.3912   42.4243   11.4058 H   0  0  0  0  0  0  0  0  0  0  0  0
    7.3879   41.8016   12.5861 H   0  0  0  0  0  0  0  0  0  0  0  0
    7.4067   42.6996   11.0305 H   0  0  0  0  0  0  0  0  0  0  0  0
    7.3945   40.9033   11.0305 H   0  0  0  0  0  0  0  0  0  0  0  0
    9.1355   41.7940    9.4674 H   0  0  0  0  0  0  0  0  0  0  0  0
   10.4740   42.7745   10.2089 H   0  0  0  0  0  0  0  0  0  0  0  0
   13.7730   37.9418    8.4966 H   0  0  0  0  0  0  0  0  0  0  0  0
   14.2928   39.6919    8.2897 H   0  0  0  0  0  0  0  0  0  0  0  0
   15.2462   40.8923   10.4048 H   0  0  0  0  0  0  0  0  0  0  0  0
   17.0039   40.6263   12.1575 H   0  0  0  0  0  0  0  0  0  0  0  0
   17.7832   38.3408   12.8190 H   0  0  0  0  0  0  0  0  0  0  0  0
   17.6818   35.9383   12.5907 H   0  0  0  0  0  0  0  0  0  0  0  0
   16.7226   33.8883   11.5175 H   0  0  0  0  0  0  0  0  0  0  0  0
   14.9517   34.1108    9.7584 H   0  0  0  0  0  0  0  0  0  0  0  0
   14.1459   36.3726    9.0624 H   0  0  0  0  0  0  0  0  0  0  0  0
   12.5592   36.5342    9.9069 H   0  0  0  0  0  0  0  0  0  0  0  0
   10.5873   35.4188   10.9820 H   0  0  0  0  0  0  0  0  0  0  0  0
    8.6206   39.2658   11.3558 H   0  0  0  0  0  0  0  0  0  0  0  0
  1  2  1  0
  2  3  1  0
  3  4  1  0
  4  5  2  0
  4  6  1  0
  6  7  1  0
  6  8  1  0
  8  9  1  0
  9 10  2  0
 10 11  1  0
 11 12  2  0
 11 13  1  0
 10 14  1  0
 14 15  1  0
 15 16  1  0
 16 17  2  0
 17 18  1  0
 18 19  2  0
 19 20  1  0
 20 21  2  0
 21 22  1  0
 22 23  2  0
 23 24  1  0
 24 25  2  0
 14 26  1  0
 26 27  2  0
 27 28  1  0
 28 29  2  0
 29 30  1  0
 29 31  1  0
 31 32  2  0
 32  9  1  0
 25 16  1  0
 32 26  1  0
 25 20  1  0
  1 33  1  0
  1 34  1  0
  1 35  1  0
  2 36  1  0
  2 37  1  0
  7 38  1  0
  7 39  1  0
  7 40  1  0
  8 41  1  0
  8 42  1  0
 15 43  1  0
 15 44  1  0
 17 45  1  0
 18 46  1  0
 19 47  1  0
 21 48  1  0
 22 49  1  0
 23 50  1  0
 24 51  1  0
 27 52  1  0
 28 53  1  0
 31 54  1  0
M  CHG  1  13  -1
M  END
>  <meeko>  (52) 
{"free_energy": -4.59, "intermolecular_energy": -6.98, "internal_energy": -2.51, "cluster_size": 35, "cluster_id": 184, "rank_in_cluster": 9}

$$$$

     RDKit          3D

 54 57  0  0  0  0  0  0  0  0999 V2000
    9.2470   38.0990   18.3440 C   0  0  0  0  0  0  0  0  0  0  0  0
   10.2970   38.1010   19.4570 C   0  0  0  0  0  0  0  0  0  0  0  0
   11.3740   38.9440   19.0820 O   0  0  0  0  0  0  0  0  0  0  0  0
   12.6430   38.4870   19.1420 C   0  0  0  0  0  0  0  0  0  0  0  0
   13.0010   37.5750   19.8900 O   0  0  0  0  0  0  0  0  0  0  0  0
   13.4600   39.1850   18.2430 N   0  0  0  0  0  0  0  0  0  0  0  0
   14.9000   39.3550   18.4670 C   0  0  0  0  0  0  0  0  0  0  0  0
   12.9030   39.8100   17.0360 C   0  0  0  0  0  0  0  0  0  0  0  0
   12.0300   38.8610   16.2490 C   0  0  0  0  0  0  0  0  0  0  0  0
   10.9280   39.1460   15.4630 C   0  0  0  0  0  0  0  0  0  0  0  0
   10.3050   40.4670   15.1370 C   0  0  0  0  0  0  0  0  0  0  0  0
    9.2820   40.8190   15.7620 O   0  0  0  0  0  0  0  0  0  0  0  0
   10.7890   41.1950   14.2430 O   0  0  0  0  0  1  0  0  0  0  0  0
   10.3920   37.9350   14.9750 N   0  0  0  0  0  0  0  0  0  0  0  0
    9.2340   37.7400   14.0980 C   0  0  0  0  0  0  0  0  0  0  0  0
    9.5780   37.4680   12.6280 C   0  0  0  0  0  0  0  0  0  0  0  0
    9.8890   36.1580   12.1850 C   0  0  0  0  0  0  0  0  0  0  0  0
   10.2050   35.9040   10.8390 C   0  0  0  0  0  0  0  0  0  0  0  0
   10.2170   36.9570    9.9100 C   0  0  0  0  0  0  0  0  0  0  0  0
    9.9130   38.2670   10.3250 C   0  0  0  0  0  0  0  0  0  0  0  0
    9.9300   39.3120    9.3790 C   0  0  0  0  0  0  0  0  0  0  0  0
    9.6300   40.6290    9.7710 C   0  0  0  0  0  0  0  0  0  0  0  0
    9.3110   40.9030   11.1130 C   0  0  0  0  0  0  0  0  0  0  0  0
    9.2930   39.8640   12.0630 C   0  0  0  0  0  0  0  0  0  0  0  0
    9.5920   38.5320   11.6850 C   0  0  0  0  0  0  0  0  0  0  0  0
   11.1520   36.8740   15.4500 C   0  0  0  0  0  0  0  0  0  0  0  0
   11.0340   35.4800   15.2730 C   0  0  0  0  0  0  0  0  0  0  0  0
   11.9650   34.6160   15.8730 C   0  0  0  0  0  0  0  0  0  0  0  0
   13.0110   35.1480   16.6460 C   0  0  0  0  0  0  0  0  0  0  0  0
   13.9140   34.3210   17.2240 F   0  0  0  0  0  0  0  0  0  0  0  0
   13.1200   36.5410   16.8220 C   0  0  0  0  0  0  0  0  0  0  0  0
   12.1930   37.4370   16.2360 C   0  0  0  0  0  0  0  0  0  0  0  0
    8.2410   38.0971   18.7890 H   0  0  0  0  0  0  0  0  0  0  0  0
    9.3709   38.9974   17.7215 H   0  0  0  0  0  0  0  0  0  0  0  0
    9.3743   37.2011   17.7215 H   0  0  0  0  0  0  0  0  0  0  0  0
    9.8452   38.4738   20.3881 H   0  0  0  0  0  0  0  0  0  0  0  0
   10.6676   37.0777   19.6166 H   0  0  0  0  0  0  0  0  0  0  0  0
   15.1026   39.3789   19.5479 H   0  0  0  0  0  0  0  0  0  0  0  0
   15.4438   38.5148   18.0105 H   0  0  0  0  0  0  0  0  0  0  0  0
   15.2332   40.2987   18.0105 H   0  0  0  0  0  0  0  0  0  0  0  0
   12.2999   40.6802   17.3345 H   0  0  0  0  0  0  0  0  0  0  0  0
   13.7441   40.1057   16.3918 H   0  0  0  0  0  0  0  0  0  0  0  0
    8.6571   36.8841   14.4783 H   0  0  0  0  0  0  0  0  0  0  0  0
    8.6711   38.6849   14.1142 H   0  0  0  0  0  0  0  0  0  0  0  0
    9.8830   35.3271   12.9058 H   0  0  0  0  0  0  0  0  0  0  0  0
   10.4428   34.8805   10.5135 H   0  0  0  0  0  0  0  0  0  0  0  0
   10.4643   36.7577    8.8568 H   0  0  0  0  0  0  0  0  0  0  0  0
   10.1790   39.0964    8.3295 H   0  0  0  0  0  0  0  0  0  0  0  0
    9.6448   41.4421    9.0303 H   0  0  0  0  0  0  0  0  0  0  0  0
    9.0748   41.9321   11.4214 H   0  0  0  0  0  0  0  0  0  0  0  0
    9.0440   40.0892   13.1105 H   0  0  0  0  0  0  0  0  0  0  0  0
   10.2138   35.0696   14.6657 H   0  0  0  0  0  0  0  0  0  0  0  0
   11.8756   33.5279   15.7384 H   0  0  0  0  0  0  0  0  0  0  0  0
   13.9447   36.9426   17.4290 H   0  0  0  0  0  0  0  0  0  0  0  0
  1  2  1  0
  2  3  1  0
  3  4  1  0
  4  5  2  0
  4  6  1  0
  6  7  1  0
  6  8  1  0
  8  9  1  0
  9 10  2  0
 10 11  1  0
 11 12  2  0
 11 13  1  0
 10 14  1  0
 14 15  1  0
 15 16  1  0
 16 17  2  0
 17 18  1  0
 18 19  2  0
 19 20  1  0
 20 21  2  0
 21 22  1  0
 22 23  2  0
 23 24  1  0
 24 25  2  0
 14 26  1  0
 26 27  2  0
 27 28  1  0
 28 29  2  0
 29 30  1  0
 29 31  1  0
 31 32  2  0
 32  9  1  0
 25 16  1  0
 32 26  1  0
 25 20  1  0
  1 33  1  0
  1 34  1  0
  1 35  1  0
  2 36  1  0
  2 37  1  0
  7 38  1  0
  7 39  1  0
  7 40  1  0
  8 41  1  0
  8 42  1  0
 15 43  1  0
 15 44  1  0
 17 45  1  0
 18 46  1  0
 19 47  1  0
 21 48  1  0
 22 49  1  0
 23 50  1  0
 24 51  1  0
 27 52  1  0
 28 53  1  0
 31 54  1  0
M  CHG  1  13  -1
M  END
>  <meeko>  (53) 
{"free_energy": -4.26, "intermolecular_energy": -6.64, "internal_energy": -2.21, "cluster_size": 66, "cluster_id": 61, "rank_in_cluster": 62}

$$$$

     RDKit          3D

 54 57  0  0  0  0  0  0  0  0999 V2000
    4.1910   38.0950   17.4840 C   0  0  0  0  0  0  0  0  0  0  0  0
    4.7670   36.7570   17.0150 C   0  0  0  0  0  0  0  0  0  0  0  0
    6.0420   36.9760   16.4330 O   0  0  0  0  0  0  0  0  0  0  0  0
    7.1530   36.9220   17.1990 C   0  0  0  0  0  0  0  0  0  0  0  0
    7.6760   37.9170   17.7050 O   0  0  0  0  0  0  0  0  0  0  0  0
    7.5980   35.6000   17.3280 N   0  0  0  0  0  0  0  0  0  0  0  0
    6.6720   34.4840   17.5490 C   0  0  0  0  0  0  0  0  0  0  0  0
    9.0280   35.2690   17.2770 C   0  0  0  0  0  0  0  0  0  0  0  0
    9.7390   35.9790   16.1480 C   0  0  0  0  0  0  0  0  0  0  0  0
    9.5390   35.8560   14.7850 C   0  0  0  0  0  0  0  0  0  0  0  0
    8.5460   35.0220   14.0380 C   0  0  0  0  0  0  0  0  0  0  0  0
    8.1010   35.4480   12.9500 O   0  0  0  0  0  0  0  0  0  0  0  0
    8.1560   33.9290   14.5020 O   0  0  0  0  0  1  0  0  0  0  0  0
   10.4790   36.6660   14.1130 N   0  0  0  0  0  0  0  0  0  0  0  0
   10.6430   36.8650   12.6700 C   0  0  0  0  0  0  0  0  0  0  0  0
    9.9910   38.1390   12.1160 C   0  0  0  0  0  0  0  0  0  0  0  0
   10.0740   39.3640   12.8240 C   0  0  0  0  0  0  0  0  0  0  0  0
    9.4790   40.5330   12.3210 C   0  0  0  0  0  0  0  0  0  0  0  0
    8.7850   40.4990   11.1000 C   0  0  0  0  0  0  0  0  0  0  0  0
    8.6860   39.2940   10.3790 C   0  0  0  0  0  0  0  0  0  0  0  0
    7.9860   39.2780    9.1560 C   0  0  0  0  0  0  0  0  0  0  0  0
    7.8740   38.0850    8.4190 C   0  0  0  0  0  0  0  0  0  0  0  0
    8.4640   36.9050    8.9050 C   0  0  0  0  0  0  0  0  0  0  0  0
    9.1640   36.9140   10.1260 C   0  0  0  0  0  0  0  0  0  0  0  0
    9.2870   38.1070   10.8810 C   0  0  0  0  0  0  0  0  0  0  0  0
   11.2820   37.3070   15.0470 C   0  0  0  0  0  0  0  0  0  0  0  0
   12.3640   38.1990   14.9020 C   0  0  0  0  0  0  0  0  0  0  0  0
   13.0050   38.7140   16.0410 C   0  0  0  0  0  0  0  0  0  0  0  0
   12.5620   38.3370   17.3200 C   0  0  0  0  0  0  0  0  0  0  0  0
   13.1740   38.8330   18.4220 F   0  0  0  0  0  0  0  0  0  0  0  0
   11.4830   37.4420   17.4570 C   0  0  0  0  0  0  0  0  0  0  0  0
   10.8210   36.9010   16.3280 C   0  0  0  0  0  0  0  0  0  0  0  0
    4.1787   38.1236   18.5836 H   0  0  0  0  0  0  0  0  0  0  0  0
    4.8151   38.9167   17.1028 H   0  0  0  0  0  0  0  0  0  0  0  0
    3.1652   38.2064   17.1028 H   0  0  0  0  0  0  0  0  0  0  0  0
    4.8668   36.0779   17.8746 H   0  0  0  0  0  0  0  0  0  0  0  0
    4.0940   36.3055   16.2712 H   0  0  0  0  0  0  0  0  0  0  0  0
    6.5403   34.3253   18.6295 H   0  0  0  0  0  0  0  0  0  0  0  0
    5.6995   34.7184   17.0916 H   0  0  0  0  0  0  0  0  0  0  0  0
    7.0818   33.5714   17.0916 H   0  0  0  0  0  0  0  0  0  0  0  0
    9.4937   35.5629   18.2292 H   0  0  0  0  0  0  0  0  0  0  0  0
    9.1178   34.1863   17.1044 H   0  0  0  0  0  0  0  0  0  0  0  0
   11.7201   36.9093   12.4513 H   0  0  0  0  0  0  0  0  0  0  0  0
   10.1344   36.0205   12.1820 H   0  0  0  0  0  0  0  0  0  0  0  0
   10.6127   39.4000   13.7824 H   0  0  0  0  0  0  0  0  0  0  0  0
    9.5565   41.4752   12.8833 H   0  0  0  0  0  0  0  0  0  0  0  0
    8.3187   41.4145   10.7071 H   0  0  0  0  0  0  0  0  0  0  0  0
    7.5254   40.2019    8.7762 H   0  0  0  0  0  0  0  0  0  0  0  0
    7.3263   38.0754    7.4651 H   0  0  0  0  0  0  0  0  0  0  0  0
    8.3782   35.9717    8.3291 H   0  0  0  0  0  0  0  0  0  0  0  0
    9.6205   35.9850   10.4983 H   0  0  0  0  0  0  0  0  0  0  0  0
   12.7059   38.4914   13.8982 H   0  0  0  0  0  0  0  0  0  0  0  0
   13.8502   39.4095   15.9320 H   0  0  0  0  0  0  0  0  0  0  0  0
   11.1466   37.1566   18.4647 H   0  0  0  0  0  0  0  0  0  0  0  0
  1  2  1  0
  2  3  1  0
  3  4  1  0
  4  5  2  0
  4  6  1  0
  6  7  1  0
  6  8  1  0
  8  9  1  0
  9 10  2  0
 10 11  1  0
 11 12  2  0
 11 13  1  0
 10 14  1  0
 14 15  1  0
 15 16  1  0
 16 17  2  0
 17 18  1  0
 18 19  2  0
 19 20  1  0
 20 21  2  0
 21 22  1  0
 22 23  2  0
 23 24  1  0
 24 25  2  0
 14 26  1  0
 26 27  2  0
 27 28  1  0
 28 29  2  0
 29 30  1  0
 29 31  1  0
 31 32  2  0
 32  9  1  0
 25 16  1  0
 32 26  1  0
 25 20  1  0
  1 33  1  0
  1 34  1  0
  1 35  1  0
  2 36  1  0
  2 37  1  0
  7 38  1  0
  7 39  1  0
  7 40  1  0
  8 41  1  0
  8 42  1  0
 15 43  1  0
 15 44  1  0
 17 45  1  0
 18 46  1  0
 19 47  1  0
 21 48  1  0
 22 49  1  0
 23 50  1  0
 24 51  1  0
 27 52  1  0
 28 53  1  0
 31 54  1  0
M  CHG  1  13  -1
M  END
>  <meeko>  (54) 
{"free_energy": -7.12, "intermolecular_energy": -9.51, "internal_energy": -1.73, "cluster_size": 163, "cluster_id": 4, "rank_in_cluster": 20}

$$$$

     RDKit          3D

 54 57  0  0  0  0  0  0  0  0999 V2000
   14.9130   41.2930   12.0350 C   0  0  0  0  0  0  0  0  0  0  0  0
   13.4420   40.9960   11.7310 C   0  0  0  0  0  0  0  0  0  0  0  0
   13.1400   41.4330   10.4160 O   0  0  0  0  0  0  0  0  0  0  0  0
   12.8700   40.5300    9.4490 C   0  0  0  0  0  0  0  0  0  0  0  0
   13.3480   40.5880    8.3150 O   0  0  0  0  0  0  0  0  0  0  0  0
   11.9940   39.5460    9.9250 N   0  0  0  0  0  0  0  0  0  0  0  0
   12.4400   38.1800   10.2170 C   0  0  0  0  0  0  0  0  0  0  0  0
   10.5670   39.8310   10.1300 C   0  0  0  0  0  0  0  0  0  0  0  0
    9.9060   38.8190   11.0360 C   0  0  0  0  0  0  0  0  0  0  0  0
    9.8650   38.7900   12.4190 C   0  0  0  0  0  0  0  0  0  0  0  0
   10.4250   39.7590   13.4100 C   0  0  0  0  0  0  0  0  0  0  0  0
   11.6440   39.7030   13.6820 O   0  0  0  0  0  0  0  0  0  0  0  0
    9.6850   40.5970   13.9710 O   0  0  0  0  0  1  0  0  0  0  0  0
    9.1890   37.6200   12.8290 N   0  0  0  0  0  0  0  0  0  0  0  0
    8.8950   37.1690   14.1920 C   0  0  0  0  0  0  0  0  0  0  0  0
    9.7570   35.9980   14.6840 C   0  0  0  0  0  0  0  0  0  0  0  0
    9.4080   34.6600   14.3750 C   0  0  0  0  0  0  0  0  0  0  0  0
   10.1950   33.5850   14.8240 C   0  0  0  0  0  0  0  0  0  0  0  0
   11.3450   33.8290   15.5910 C   0  0  0  0  0  0  0  0  0  0  0  0
   11.7120   35.1490   15.9120 C   0  0  0  0  0  0  0  0  0  0  0  0
   12.8700   35.3750   16.6840 C   0  0  0  0  0  0  0  0  0  0  0  0
   13.2550   36.6860   17.0170 C   0  0  0  0  0  0  0  0  0  0  0  0
   12.4820   37.7750   16.5770 C   0  0  0  0  0  0  0  0  0  0  0  0
   11.3240   37.5560   15.8060 C   0  0  0  0  0  0  0  0  0  0  0  0
   10.9220   36.2420   15.4620 C   0  0  0  0  0  0  0  0  0  0  0  0
    8.7990   36.9000   11.7070 C   0  0  0  0  0  0  0  0  0  0  0  0
    8.1170   35.6730   11.5680 C   0  0  0  0  0  0  0  0  0  0  0  0
    7.8370   35.1680   10.2870 C   0  0  0  0  0  0  0  0  0  0  0  0
    8.2380   35.8920    9.1500 C   0  0  0  0  0  0  0  0  0  0  0  0
    7.9680   35.4120    7.9130 F   0  0  0  0  0  0  0  0  0  0  0  0
    8.9220   37.1140    9.2970 C   0  0  0  0  0  0  0  0  0  0  0  0
    9.2240   37.6450   10.5750 C   0  0  0  0  0  0  0  0  0  0  0  0
   15.0634   41.3234   13.1242 H   0  0  0  0  0  0  0  0  0  0  0  0
   15.5439   40.5041   11.5996 H   0  0  0  0  0  0  0  0  0  0  0  0
   15.1884   42.2649   11.5996 H   0  0  0  0  0  0  0  0  0  0  0  0
   13.2613   39.9138   11.8096 H   0  0  0  0  0  0  0  0  0  0  0  0
   12.8016   41.5247   12.4523 H   0  0  0  0  0  0  0  0  0  0  0  0
   12.4874   38.0347   11.3063 H   0  0  0  0  0  0  0  0  0  0  0  0
   11.7298   37.4615    9.7819 H   0  0  0  0  0  0  0  0  0  0  0  0
   13.4374   38.0190    9.7819 H   0  0  0  0  0  0  0  0  0  0  0  0
   10.4666   40.8291   10.5814 H   0  0  0  0  0  0  0  0  0  0  0  0
   10.0693   39.7821    9.1502 H   0  0  0  0  0  0  0  0  0  0  0  0
    9.0501   38.0180   14.8740 H   0  0  0  0  0  0  0  0  0  0  0  0
    7.8570   36.8050   14.1800 H   0  0  0  0  0  0  0  0  0  0  0  0
    8.5081   34.4594   13.7750 H   0  0  0  0  0  0  0  0  0  0  0  0
    9.9095   32.5525   14.5742 H   0  0  0  0  0  0  0  0  0  0  0  0
   11.9602   32.9872   15.9416 H   0  0  0  0  0  0  0  0  0  0  0  0
   13.4747   34.5226   17.0272 H   0  0  0  0  0  0  0  0  0  0  0  0
   14.1585   36.8590   17.6201 H   0  0  0  0  0  0  0  0  0  0  0  0
   12.7826   38.8010   16.8357 H   0  0  0  0  0  0  0  0  0  0  0  0
   10.7253   38.4144   15.4673 H   0  0  0  0  0  0  0  0  0  0  0  0
    7.8048   35.1122   12.4613 H   0  0  0  0  0  0  0  0  0  0  0  0
    7.3067   34.2109   10.1741 H   0  0  0  0  0  0  0  0  0  0  0  0
    9.2290   37.6692    8.3984 H   0  0  0  0  0  0  0  0  0  0  0  0
  1  2  1  0
  2  3  1  0
  3  4  1  0
  4  5  2  0
  4  6  1  0
  6  7  1  0
  6  8  1  0
  8  9  1  0
  9 10  2  0
 10 11  1  0
 11 12  2  0
 11 13  1  0
 10 14  1  0
 14 15  1  0
 15 16  1  0
 16 17  2  0
 17 18  1  0
 18 19  2  0
 19 20  1  0
 20 21  2  0
 21 22  1  0
 22 23  2  0
 23 24  1  0
 24 25  2  0
 14 26  1  0
 26 27  2  0
 27 28  1  0
 28 29  2  0
 29 30  1  0
 29 31  1  0
 31 32  2  0
 32  9  1  0
 25 16  1  0
 32 26  1  0
 25 20  1  0
  1 33  1  0
  1 34  1  0
  1 35  1  0
  2 36  1  0
  2 37  1  0
  7 38  1  0
  7 39  1  0
  7 40  1  0
  8 41  1  0
  8 42  1  0
 15 43  1  0
 15 44  1  0
 17 45  1  0
 18 46  1  0
 19 47  1  0
 21 48  1  0
 22 49  1  0
 23 50  1  0
 24 51  1  0
 27 52  1  0
 28 53  1  0
 31 54  1  0
M  CHG  1  13  -1
M  END
>  <meeko>  (55) 
{"free_energy": -5.58, "intermolecular_energy": -7.97, "internal_energy": -2.07, "cluster_size": 130, "cluster_id": 32, "rank_in_cluster": 50}

$$$$

     RDKit          3D

 54 57  0  0  0  0  0  0  0  0999 V2000
    9.7320   45.4140   13.8920 C   0  0  0  0  0  0  0  0  0  0  0  0
   11.1870   45.8690   13.7570 C   0  0  0  0  0  0  0  0  0  0  0  0
   12.0220   44.9850   14.4860 O   0  0  0  0  0  0  0  0  0  0  0  0
   12.9620   44.2590   13.8440 C   0  0  0  0  0  0  0  0  0  0  0  0
   14.1710   44.3860   14.0450 O   0  0  0  0  0  0  0  0  0  0  0  0
   12.3650   43.3630   12.9490 N   0  0  0  0  0  0  0  0  0  0  0  0
   12.4800   43.5190   11.4950 C   0  0  0  0  0  0  0  0  0  0  0  0
   11.5610   42.2300   13.4270 C   0  0  0  0  0  0  0  0  0  0  0  0
   10.9850   41.4170   12.2920 C   0  0  0  0  0  0  0  0  0  0  0  0
    9.6850   41.3900   11.8170 C   0  0  0  0  0  0  0  0  0  0  0  0
    8.4910   42.1740   12.2620 C   0  0  0  0  0  0  0  0  0  0  0  0
    7.5970   42.4300   11.4280 O   0  0  0  0  0  0  0  0  0  0  0  0
    8.4000   42.5810   13.4410 O   0  0  0  0  0  1  0  0  0  0  0  0
    9.5990   40.4320   10.7840 N   0  0  0  0  0  0  0  0  0  0  0  0
    8.4300   40.0630    9.9810 C   0  0  0  0  0  0  0  0  0  0  0  0
    8.2310   38.5540    9.7880 C   0  0  0  0  0  0  0  0  0  0  0  0
    8.5590   37.6400   10.8200 C   0  0  0  0  0  0  0  0  0  0  0  0
    8.3780   36.2570   10.6480 C   0  0  0  0  0  0  0  0  0  0  0  0
    7.8680   35.7610    9.4370 C   0  0  0  0  0  0  0  0  0  0  0  0
    7.5360   36.6480    8.3960 C   0  0  0  0  0  0  0  0  0  0  0  0
    7.0250   36.1330    7.1870 C   0  0  0  0  0  0  0  0  0  0  0  0
    6.6870   37.0000    6.1320 C   0  0  0  0  0  0  0  0  0  0  0  0
    6.8600   38.3870    6.2860 C   0  0  0  0  0  0  0  0  0  0  0  0
    7.3700   38.9080    7.4900 C   0  0  0  0  0  0  0  0  0  0  0  0
    7.7150   38.0490    8.5630 C   0  0  0  0  0  0  0  0  0  0  0  0
   10.8440   39.8460   10.5980 C   0  0  0  0  0  0  0  0  0  0  0  0
   11.2860   38.8390    9.7150 C   0  0  0  0  0  0  0  0  0  0  0  0
   12.6300   38.4330    9.7320 C   0  0  0  0  0  0  0  0  0  0  0  0
   13.5290   39.0360   10.6300 C   0  0  0  0  0  0  0  0  0  0  0  0
   14.8270   38.6510   10.6480 F   0  0  0  0  0  0  0  0  0  0  0  0
   13.0790   40.0380   11.5110 C   0  0  0  0  0  0  0  0  0  0  0  0
   11.7290   40.4640   11.5220 C   0  0  0  0  0  0  0  0  0  0  0  0
    9.4707   45.3323   14.9574 H   0  0  0  0  0  0  0  0  0  0  0  0
    9.0717   46.1485   13.4078 H   0  0  0  0  0  0  0  0  0  0  0  0
    9.6078   44.4341   13.4078 H   0  0  0  0  0  0  0  0  0  0  0  0
   11.4784   45.8595   12.6964 H   0  0  0  0  0  0  0  0  0  0  0  0
   11.2933   46.8893   14.1542 H   0  0  0  0  0  0  0  0  0  0  0  0
   13.1187   44.3855   11.2686 H   0  0  0  0  0  0  0  0  0  0  0  0
   12.9267   42.6113   11.0630 H   0  0  0  0  0  0  0  0  0  0  0  0
   11.4808   43.6772   11.0630 H   0  0  0  0  0  0  0  0  0  0  0  0
   12.1990   41.5776   14.0413 H   0  0  0  0  0  0  0  0  0  0  0  0
   10.7214   42.6355   14.0106 H   0  0  0  0  0  0  0  0  0  0  0  0
    7.5341   40.4655   10.4762 H   0  0  0  0  0  0  0  0  0  0  0  0
    8.5983   40.4834    8.9785 H   0  0  0  0  0  0  0  0  0  0  0  0
    8.9617   38.0190   11.7709 H   0  0  0  0  0  0  0  0  0  0  0  0
    8.6357   35.5631   11.4617 H   0  0  0  0  0  0  0  0  0  0  0  0
    7.7279   34.6783    9.3021 H   0  0  0  0  0  0  0  0  0  0  0  0
    6.8900   35.0478    7.0681 H   0  0  0  0  0  0  0  0  0  0  0  0
    6.2889   36.5945    5.1902 H   0  0  0  0  0  0  0  0  0  0  0  0
    6.5959   39.0671    5.4628 H   0  0  0  0  0  0  0  0  0  0  0  0
    7.5023   39.9945    7.5993 H   0  0  0  0  0  0  0  0  0  0  0  0
   10.5786   38.3722    9.0138 H   0  0  0  0  0  0  0  0  0  0  0  0
   12.9783   37.6468    9.0460 H   0  0  0  0  0  0  0  0  0  0  0  0
   13.7936   40.5009   12.2075 H   0  0  0  0  0  0  0  0  0  0  0  0
  1  2  1  0
  2  3  1  0
  3  4  1  0
  4  5  2  0
  4  6  1  0
  6  7  1  0
  6  8  1  0
  8  9  1  0
  9 10  2  0
 10 11  1  0
 11 12  2  0
 11 13  1  0
 10 14  1  0
 14 15  1  0
 15 16  1  0
 16 17  2  0
 17 18  1  0
 18 19  2  0
 19 20  1  0
 20 21  2  0
 21 22  1  0
 22 23  2  0
 23 24  1  0
 24 25  2  0
 14 26  1  0
 26 27  2  0
 27 28  1  0
 28 29  2  0
 29 30  1  0
 29 31  1  0
 31 32  2  0
 32  9  1  0
 25 16  1  0
 32 26  1  0
 25 20  1  0
  1 33  1  0
  1 34  1  0
  1 35  1  0
  2 36  1  0
  2 37  1  0
  7 38  1  0
  7 39  1  0
  7 40  1  0
  8 41  1  0
  8 42  1  0
 15 43  1  0
 15 44  1  0
 17 45  1  0
 18 46  1  0
 19 47  1  0
 21 48  1  0
 22 49  1  0
 23 50  1  0
 24 51  1  0
 27 52  1  0
 28 53  1  0
 31 54  1  0
M  CHG  1  13  -1
M  END
>  <meeko>  (56) 
{"free_energy": -6.6, "intermolecular_energy": -8.98, "internal_energy": -1.67, "cluster_size": 210, "cluster_id": 15, "rank_in_cluster": 37}

$$$$

     RDKit          3D

 54 57  0  0  0  0  0  0  0  0999 V2000
   14.6480   39.1240    8.7510 C   0  0  0  0  0  0  0  0  0  0  0  0
   14.4540   38.4230   10.0980 C   0  0  0  0  0  0  0  0  0  0  0  0
   14.6700   39.3540   11.1450 O   0  0  0  0  0  0  0  0  0  0  0  0
   14.2830   39.0580   12.4050 C   0  0  0  0  0  0  0  0  0  0  0  0
   14.9450   38.3520   13.1680 O   0  0  0  0  0  0  0  0  0  0  0  0
   13.0550   39.6640   12.6980 N   0  0  0  0  0  0  0  0  0  0  0  0
   12.1380   39.1210   13.7060 C   0  0  0  0  0  0  0  0  0  0  0  0
   12.6100   40.8680   11.9830 C   0  0  0  0  0  0  0  0  0  0  0  0
   11.1530   40.7950   11.5920 C   0  0  0  0  0  0  0  0  0  0  0  0
   10.5260   39.8930   10.7500 C   0  0  0  0  0  0  0  0  0  0  0  0
   11.0940   38.7190   10.0170 C   0  0  0  0  0  0  0  0  0  0  0  0
   11.1920   38.7780    8.7720 O   0  0  0  0  0  0  0  0  0  0  0  0
   11.4440   37.6910   10.6360 O   0  0  0  0  0  1  0  0  0  0  0  0
    9.1660   40.2520   10.6310 N   0  0  0  0  0  0  0  0  0  0  0  0
    8.1130   39.5880    9.8570 C   0  0  0  0  0  0  0  0  0  0  0  0
    8.1380   38.0550    9.9180 C   0  0  0  0  0  0  0  0  0  0  0  0
    8.5080   37.3820   11.1090 C   0  0  0  0  0  0  0  0  0  0  0  0
    8.5310   35.9780   11.1690 C   0  0  0  0  0  0  0  0  0  0  0  0
    8.1870   35.2200   10.0380 C   0  0  0  0  0  0  0  0  0  0  0  0
    7.8180   35.8660    8.8430 C   0  0  0  0  0  0  0  0  0  0  0  0
    7.4760   35.0890    7.7160 C   0  0  0  0  0  0  0  0  0  0  0  0
    7.1050   35.7120    6.5120 C   0  0  0  0  0  0  0  0  0  0  0  0
    7.0740   37.1160    6.4320 C   0  0  0  0  0  0  0  0  0  0  0  0
    7.4150   37.8970    7.5520 C   0  0  0  0  0  0  0  0  0  0  0  0
    7.7910   37.2860    8.7740 C   0  0  0  0  0  0  0  0  0  0  0  0
    8.9230   41.3850   11.3970 C   0  0  0  0  0  0  0  0  0  0  0  0
    7.7540   42.1440   11.6080 C   0  0  0  0  0  0  0  0  0  0  0  0
    7.7870   43.2620   12.4570 C   0  0  0  0  0  0  0  0  0  0  0  0
    8.9890   43.6170   13.0940 C   0  0  0  0  0  0  0  0  0  0  0  0
    9.0280   44.6910   13.9180 F   0  0  0  0  0  0  0  0  0  0  0  0
   10.1540   42.8560   12.8760 C   0  0  0  0  0  0  0  0  0  0  0  0
   10.1530   41.7280   12.0200 C   0  0  0  0  0  0  0  0  0  0  0  0
   14.9379   40.1714    8.9211 H   0  0  0  0  0  0  0  0  0  0  0  0
   15.4384   38.6126    8.1820 H   0  0  0  0  0  0  0  0  0  0  0  0
   13.7072   39.0917    8.1820 H   0  0  0  0  0  0  0  0  0  0  0  0
   13.4294   38.0281   10.1627 H   0  0  0  0  0  0  0  0  0  0  0  0
   15.1704   37.5932   10.1886 H   0  0  0  0  0  0  0  0  0  0  0  0
   12.5220   39.3484   14.7114 H   0  0  0  0  0  0  0  0  0  0  0  0
   11.1446   39.5765   13.5812 H   0  0  0  0  0  0  0  0  0  0  0  0
   12.0598   38.0309   13.5812 H   0  0  0  0  0  0  0  0  0  0  0  0
   12.7583   41.7418   12.6345 H   0  0  0  0  0  0  0  0  0  0  0  0
   13.2030   40.9506   11.0602 H   0  0  0  0  0  0  0  0  0  0  0  0
    7.1400   39.9297   10.2398 H   0  0  0  0  0  0  0  0  0  0  0  0
    8.2852   39.8585    8.8048 H   0  0  0  0  0  0  0  0  0  0  0  0
    8.7812   37.9670   11.9996 H   0  0  0  0  0  0  0  0  0  0  0  0
    8.8187   35.4725   12.1026 H   0  0  0  0  0  0  0  0  0  0  0  0
    8.2059   34.1212   10.0859 H   0  0  0  0  0  0  0  0  0  0  0  0
    7.4998   33.9911    7.7800 H   0  0  0  0  0  0  0  0  0  0  0  0
    6.8397   35.1035    5.6349 H   0  0  0  0  0  0  0  0  0  0  0  0
    6.7823   37.6051    5.4909 H   0  0  0  0  0  0  0  0  0  0  0  0
    7.3894   38.9942    7.4780 H   0  0  0  0  0  0  0  0  0  0  0  0
    6.8162   41.8606   11.1077 H   0  0  0  0  0  0  0  0  0  0  0  0
    6.8769   43.8571   12.6229 H   0  0  0  0  0  0  0  0  0  0  0  0
   11.0867   43.1448   13.3827 H   0  0  0  0  0  0  0  0  0  0  0  0
  1  2  1  0
  2  3  1  0
  3  4  1  0
  4  5  2  0
  4  6  1  0
  6  7  1  0
  6  8  1  0
  8  9  1  0
  9 10  2  0
 10 11  1  0
 11 12  2  0
 11 13  1  0
 10 14  1  0
 14 15  1  0
 15 16  1  0
 16 17  2  0
 17 18  1  0
 18 19  2  0
 19 20  1  0
 20 21  2  0
 21 22  1  0
 22 23  2  0
 23 24  1  0
 24 25  2  0
 14 26  1  0
 26 27  2  0
 27 28  1  0
 28 29  2  0
 29 30  1  0
 29 31  1  0
 31 32  2  0
 32  9  1  0
 25 16  1  0
 32 26  1  0
 25 20  1  0
  1 33  1  0
  1 34  1  0
  1 35  1  0
  2 36  1  0
  2 37  1  0
  7 38  1  0
  7 39  1  0
  7 40  1  0
  8 41  1  0
  8 42  1  0
 15 43  1  0
 15 44  1  0
 17 45  1  0
 18 46  1  0
 19 47  1  0
 21 48  1  0
 22 49  1  0
 23 50  1  0
 24 51  1  0
 27 52  1  0
 28 53  1  0
 31 54  1  0
M  CHG  1  13  -1
M  END
>  <meeko>  (57) 
{"free_energy": -7.92, "intermolecular_energy": -10.31, "internal_energy": -1.97, "cluster_size": 417, "cluster_id": 2, "rank_in_cluster": 7}

$$$$

     RDKit          3D

 54 57  0  0  0  0  0  0  0  0999 V2000
   15.9660   36.0140   10.9640 C   0  0  0  0  0  0  0  0  0  0  0  0
   16.0210   37.3130   11.7730 C   0  0  0  0  0  0  0  0  0  0  0  0
   15.0180   38.1990   11.3030 O   0  0  0  0  0  0  0  0  0  0  0  0
   14.9470   39.4580   11.7850 C   0  0  0  0  0  0  0  0  0  0  0  0
   15.1780   40.4580   11.1040 O   0  0  0  0  0  0  0  0  0  0  0  0
   14.5770   39.4460   13.1360 N   0  0  0  0  0  0  0  0  0  0  0  0
   15.4950   39.0110   14.1940 C   0  0  0  0  0  0  0  0  0  0  0  0
   13.2280   39.8460   13.5590 C   0  0  0  0  0  0  0  0  0  0  0  0
   12.1930   38.7920   13.2420 C   0  0  0  0  0  0  0  0  0  0  0  0
   11.7690   38.3390   12.0050 C   0  0  0  0  0  0  0  0  0  0  0  0
   12.2300   38.7290   10.6370 C   0  0  0  0  0  0  0  0  0  0  0  0
   12.7290   37.8520    9.8990 O   0  0  0  0  0  0  0  0  0  0  0  0
   12.1360   39.9130   10.2470 O   0  0  0  0  0  1  0  0  0  0  0  0
   10.7390   37.3930   12.1970 N   0  0  0  0  0  0  0  0  0  0  0  0
    9.9940   36.6400   11.1840 C   0  0  0  0  0  0  0  0  0  0  0  0
    9.2080   37.5020   10.1870 C   0  0  0  0  0  0  0  0  0  0  0  0
    9.0750   38.9000   10.3830 C   0  0  0  0  0  0  0  0  0  0  0  0
    8.3560   39.6940    9.4730 C   0  0  0  0  0  0  0  0  0  0  0  0
    7.7540   39.1040    8.3500 C   0  0  0  0  0  0  0  0  0  0  0  0
    7.8700   37.7170    8.1350 C   0  0  0  0  0  0  0  0  0  0  0  0
    7.2580   37.1420    7.0020 C   0  0  0  0  0  0  0  0  0  0  0  0
    7.3600   35.7590    6.7660 C   0  0  0  0  0  0  0  0  0  0  0  0
    8.0760   34.9480    7.6650 C   0  0  0  0  0  0  0  0  0  0  0  0
    8.6890   35.5170    8.7980 C   0  0  0  0  0  0  0  0  0  0  0  0
    8.5960   36.9080    9.0500 C   0  0  0  0  0  0  0  0  0  0  0  0
   10.5030   37.2420   13.5570 C   0  0  0  0  0  0  0  0  0  0  0  0
    9.5840   36.4450   14.2690 C   0  0  0  0  0  0  0  0  0  0  0  0
    9.5650   36.4790   15.6730 C   0  0  0  0  0  0  0  0  0  0  0  0
   10.4670   37.3100   16.3610 C   0  0  0  0  0  0  0  0  0  0  0  0
   10.4570   37.3450   17.7150 F   0  0  0  0  0  0  0  0  0  0  0  0
   11.3800   38.1070   15.6430 C   0  0  0  0  0  0  0  0  0  0  0  0
   11.4170   38.0980   14.2280 C   0  0  0  0  0  0  0  0  0  0  0  0
   15.9297   35.1556   11.6508 H   0  0  0  0  0  0  0  0  0  0  0  0
   15.0671   36.0147   10.3300 H   0  0  0  0  0  0  0  0  0  0  0  0
   16.8618   35.9387   10.3300 H   0  0  0  0  0  0  0  0  0  0  0  0
   15.8472   37.0916   12.8364 H   0  0  0  0  0  0  0  0  0  0  0  0
   17.0102   37.7795   11.6555 H   0  0  0  0  0  0  0  0  0  0  0  0
   15.0485   39.2226   15.1768 H   0  0  0  0  0  0  0  0  0  0  0  0
   15.6779   37.9305   14.0993 H   0  0  0  0  0  0  0  0  0  0  0  0
   16.4471   39.5537   14.0993 H   0  0  0  0  0  0  0  0  0  0  0  0
   13.2347   40.0202   14.6451 H   0  0  0  0  0  0  0  0  0  0  0  0
   12.9589   40.7592   13.0080 H   0  0  0  0  0  0  0  0  0  0  0  0
   10.7112   36.0289   10.6163 H   0  0  0  0  0  0  0  0  0  0  0  0
    9.2490   36.0423   11.7296 H   0  0  0  0  0  0  0  0  0  0  0  0
    9.5418   39.3705   11.2609 H   0  0  0  0  0  0  0  0  0  0  0  0
    8.2649   40.7773    9.6405 H   0  0  0  0  0  0  0  0  0  0  0  0
    7.1915   39.7255    7.6378 H   0  0  0  0  0  0  0  0  0  0  0  0
    6.6985   37.7776    6.2999 H   0  0  0  0  0  0  0  0  0  0  0  0
    6.8815   35.3133    5.8815 H   0  0  0  0  0  0  0  0  0  0  0  0
    8.1573   33.8663    7.4825 H   0  0  0  0  0  0  0  0  0  0  0  0
    9.2463   34.8741    9.4952 H   0  0  0  0  0  0  0  0  0  0  0  0
    8.8816   35.7963   13.7250 H   0  0  0  0  0  0  0  0  0  0  0  0
    8.8483   35.8589   16.2314 H   0  0  0  0  0  0  0  0  0  0  0  0
   12.0804   38.7513   16.1947 H   0  0  0  0  0  0  0  0  0  0  0  0
  1  2  1  0
  2  3  1  0
  3  4  1  0
  4  5  2  0
  4  6  1  0
  6  7  1  0
  6  8  1  0
  8  9  1  0
  9 10  2  0
 10 11  1  0
 11 12  2  0
 11 13  1  0
 10 14  1  0
 14 15  1  0
 15 16  1  0
 16 17  2  0
 17 18  1  0
 18 19  2  0
 19 20  1  0
 20 21  2  0
 21 22  1  0
 22 23  2  0
 23 24  1  0
 24 25  2  0
 14 26  1  0
 26 27  2  0
 27 28  1  0
 28 29  2  0
 29 30  1  0
 29 31  1  0
 31 32  2  0
 32  9  1  0
 25 16  1  0
 32 26  1  0
 25 20  1  0
  1 33  1  0
  1 34  1  0
  1 35  1  0
  2 36  1  0
  2 37  1  0
  7 38  1  0
  7 39  1  0
  7 40  1  0
  8 41  1  0
  8 42  1  0
 15 43  1  0
 15 44  1  0
 17 45  1  0
 18 46  1  0
 19 47  1  0
 21 48  1  0
 22 49  1  0
 23 50  1  0
 24 51  1  0
 27 52  1  0
 28 53  1  0
 31 54  1  0
M  CHG  1  13  -1
M  END
>  <meeko>  (58) 
{"free_energy": -6.23, "intermolecular_energy": -8.62, "internal_energy": -1.39, "cluster_size": 292, "cluster_id": 10, "rank_in_cluster": 122}

$$$$

     RDKit          3D

 54 57  0  0  0  0  0  0  0  0999 V2000
   11.3750   33.0470   14.7060 C   0  0  0  0  0  0  0  0  0  0  0  0
   11.8380   33.7820   15.9670 C   0  0  0  0  0  0  0  0  0  0  0  0
   11.2270   35.0610   16.0130 O   0  0  0  0  0  0  0  0  0  0  0  0
    9.8890   35.1660   16.1610 C   0  0  0  0  0  0  0  0  0  0  0  0
    9.0960   34.2970   15.7960 O   0  0  0  0  0  0  0  0  0  0  0  0
    9.5570   36.3770   16.7830 N   0  0  0  0  0  0  0  0  0  0  0  0
    8.2970   36.5610   17.5110 C   0  0  0  0  0  0  0  0  0  0  0  0
   10.4510   37.5410   16.7100 C   0  0  0  0  0  0  0  0  0  0  0  0
   10.9860   37.7650   15.3150 C   0  0  0  0  0  0  0  0  0  0  0  0
   10.4410   37.3720   14.1040 C   0  0  0  0  0  0  0  0  0  0  0  0
    9.1610   36.6500   13.8240 C   0  0  0  0  0  0  0  0  0  0  0  0
    8.1150   37.0440   14.3820 O   0  0  0  0  0  0  0  0  0  0  0  0
    9.1430   35.6600   13.0600 O   0  0  0  0  0  1  0  0  0  0  0  0
   11.3230   37.7450   13.0670 N   0  0  0  0  0  0  0  0  0  0  0  0
   11.1660   37.5470   11.6240 C   0  0  0  0  0  0  0  0  0  0  0  0
   10.1160   38.4470   10.9600 C   0  0  0  0  0  0  0  0  0  0  0  0
   10.0150   39.8190   11.3020 C   0  0  0  0  0  0  0  0  0  0  0  0
    9.0550   40.6480   10.6970 C   0  0  0  0  0  0  0  0  0  0  0  0
    8.1750   40.1190    9.7380 C   0  0  0  0  0  0  0  0  0  0  0  0
    8.2540   38.7590    9.3830 C   0  0  0  0  0  0  0  0  0  0  0  0
    7.3620   38.2450    8.4190 C   0  0  0  0  0  0  0  0  0  0  0  0
    7.4230   36.8900    8.0480 C   0  0  0  0  0  0  0  0  0  0  0  0
    8.3770   36.0450    8.6420 C   0  0  0  0  0  0  0  0  0  0  0  0
    9.2700   36.5520    9.6050 C   0  0  0  0  0  0  0  0  0  0  0  0
    9.2230   37.9150    9.9900 C   0  0  0  0  0  0  0  0  0  0  0  0
   12.4330   38.3760   13.6150 C   0  0  0  0  0  0  0  0  0  0  0  0
   13.5930   38.9170   13.0230 C   0  0  0  0  0  0  0  0  0  0  0  0
   14.5750   39.5180   13.8290 C   0  0  0  0  0  0  0  0  0  0  0  0
   14.3930   39.5770   15.2210 C   0  0  0  0  0  0  0  0  0  0  0  0
   15.3340   40.1580   16.0030 F   0  0  0  0  0  0  0  0  0  0  0  0
   13.2340   39.0310   15.8050 C   0  0  0  0  0  0  0  0  0  0  0  0
   12.2300   38.4130   15.0200 C   0  0  0  0  0  0  0  0  0  0  0  0
   10.8089   32.1484   14.9924 H   0  0  0  0  0  0  0  0  0  0  0  0
   10.7318   33.7110   14.1099 H   0  0  0  0  0  0  0  0  0  0  0  0
   12.2517   32.7536   14.1099 H   0  0  0  0  0  0  0  0  0  0  0  0
   11.5484   33.2039   16.8569 H   0  0  0  0  0  0  0  0  0  0  0  0
   12.9319   33.8959   15.9473 H   0  0  0  0  0  0  0  0  0  0  0  0
    8.4914   36.5326   18.5933 H   0  0  0  0  0  0  0  0  0  0  0  0
    7.8571   37.5329   17.2428 H   0  0  0  0  0  0  0  0  0  0  0  0
    7.5976   35.7555   17.2428 H   0  0  0  0  0  0  0  0  0  0  0  0
    9.8932   38.4359   17.0231 H   0  0  0  0  0  0  0  0  0  0  0  0
   11.3078   37.3500   17.3729 H   0  0  0  0  0  0  0  0  0  0  0  0
   12.1365   37.7427   11.1445 H   0  0  0  0  0  0  0  0  0  0  0  0
   10.8155   36.5129   11.4904 H   0  0  0  0  0  0  0  0  0  0  0  0
   10.6989   40.2414   12.0529 H   0  0  0  0  0  0  0  0  0  0  0  0
    8.9926   41.7107   10.9742 H   0  0  0  0  0  0  0  0  0  0  0  0
    7.4237   40.7680    9.2642 H   0  0  0  0  0  0  0  0  0  0  0  0
    6.6155   38.9068    7.9555 H   0  0  0  0  0  0  0  0  0  0  0  0
    6.7264   36.4923    7.2953 H   0  0  0  0  0  0  0  0  0  0  0  0
    8.4257   34.9847    8.3534 H   0  0  0  0  0  0  0  0  0  0  0  0
   10.0126   35.8826   10.0638 H   0  0  0  0  0  0  0  0  0  0  0  0
   13.7290   38.8687   11.9325 H   0  0  0  0  0  0  0  0  0  0  0  0
   15.4821   39.9404   13.3721 H   0  0  0  0  0  0  0  0  0  0  0  0
   13.1053   39.0856   16.8961 H   0  0  0  0  0  0  0  0  0  0  0  0
  1  2  1  0
  2  3  1  0
  3  4  1  0
  4  5  2  0
  4  6  1  0
  6  7  1  0
  6  8  1  0
  8  9  1  0
  9 10  2  0
 10 11  1  0
 11 12  2  0
 11 13  1  0
 10 14  1  0
 14 15  1  0
 15 16  1  0
 16 17  2  0
 17 18  1  0
 18 19  2  0
 19 20  1  0
 20 21  2  0
 21 22  1  0
 22 23  2  0
 23 24  1  0
 24 25  2  0
 14 26  1  0
 26 27  2  0
 27 28  1  0
 28 29  2  0
 29 30  1  0
 29 31  1  0
 31 32  2  0
 32  9  1  0
 25 16  1  0
 32 26  1  0
 25 20  1  0
  1 33  1  0
  1 34  1  0
  1 35  1  0
  2 36  1  0
  2 37  1  0
  7 38  1  0
  7 39  1  0
  7 40  1  0
  8 41  1  0
  8 42  1  0
 15 43  1  0
 15 44  1  0
 17 45  1  0
 18 46  1  0
 19 47  1  0
 21 48  1  0
 22 49  1  0
 23 50  1  0
 24 51  1  0
 27 52  1  0
 28 53  1  0
 31 54  1  0
M  CHG  1  13  -1
M  END
>  <meeko>  (59) 
{"free_energy": -6.06, "intermolecular_energy": -8.44, "internal_energy": -1.54, "cluster_size": 263, "cluster_id": 1, "rank_in_cluster": 214}

$$$$

     RDKit          3D

 54 57  0  0  0  0  0  0  0  0999 V2000
   17.6510   38.0550   12.4630 C   0  0  0  0  0  0  0  0  0  0  0  0
   17.1570   38.4900   13.8450 C   0  0  0  0  0  0  0  0  0  0  0  0
   15.7440   38.3800   13.8920 O   0  0  0  0  0  0  0  0  0  0  0  0
   15.0820   38.6460   15.0380 C   0  0  0  0  0  0  0  0  0  0  0  0
   14.8310   37.7920   15.8900 O   0  0  0  0  0  0  0  0  0  0  0  0
   14.7430   40.0040   15.1060 N   0  0  0  0  0  0  0  0  0  0  0  0
   14.6980   40.7350   16.3770 C   0  0  0  0  0  0  0  0  0  0  0  0
   14.3850   40.7610   13.8990 C   0  0  0  0  0  0  0  0  0  0  0  0
   13.1740   40.1870   13.2020 C   0  0  0  0  0  0  0  0  0  0  0  0
   11.8370   40.4700   13.4150 C   0  0  0  0  0  0  0  0  0  0  0  0
   11.2060   41.4420   14.3620 C   0  0  0  0  0  0  0  0  0  0  0  0
   11.5880   42.6310   14.3430 O   0  0  0  0  0  0  0  0  0  0  0  0
   10.3280   41.0660   15.1680 O   0  0  0  0  0  1  0  0  0  0  0  0
   11.0590   39.6450   12.5740 N   0  0  0  0  0  0  0  0  0  0  0  0
    9.6000   39.5960   12.4440 C   0  0  0  0  0  0  0  0  0  0  0  0
    9.0890   39.2670   11.0350 C   0  0  0  0  0  0  0  0  0  0  0  0
    9.0360   40.2660   10.0300 C   0  0  0  0  0  0  0  0  0  0  0  0
    8.5690   39.9690    8.7380 C   0  0  0  0  0  0  0  0  0  0  0  0
    8.1430   38.6680    8.4270 C   0  0  0  0  0  0  0  0  0  0  0  0
    8.1840   37.6590    9.4080 C   0  0  0  0  0  0  0  0  0  0  0  0
    7.7520   36.3580    9.0790 C   0  0  0  0  0  0  0  0  0  0  0  0
    7.7830   35.3340   10.0430 C   0  0  0  0  0  0  0  0  0  0  0  0
    8.2480   35.6110   11.3410 C   0  0  0  0  0  0  0  0  0  0  0  0
    8.6810   36.9080   11.6770 C   0  0  0  0  0  0  0  0  0  0  0  0
    8.6560   37.9510   10.7170 C   0  0  0  0  0  0  0  0  0  0  0  0
   11.8990   38.8330   11.8240 C   0  0  0  0  0  0  0  0  0  0  0  0
   11.6310   37.8380   10.8610 C   0  0  0  0  0  0  0  0  0  0  0  0
   12.6940   37.1630   10.2370 C   0  0  0  0  0  0  0  0  0  0  0  0
   14.0190   37.4870   10.5750 C   0  0  0  0  0  0  0  0  0  0  0  0
   15.0480   36.8430    9.9740 F   0  0  0  0  0  0  0  0  0  0  0  0
   14.2790   38.4790   11.5400 C   0  0  0  0  0  0  0  0  0  0  0  0
   13.2290   39.1720   12.1910 C   0  0  0  0  0  0  0  0  0  0  0  0
   18.4720   37.3320   12.5779 H   0  0  0  0  0  0  0  0  0  0  0  0
   16.8244   37.5861   11.9090 H   0  0  0  0  0  0  0  0  0  0  0  0
   18.0115   38.9343   11.9090 H   0  0  0  0  0  0  0  0  0  0  0  0
   17.6020   37.8428   14.6151 H   0  0  0  0  0  0  0  0  0  0  0  0
   17.4525   39.5331   14.0312 H   0  0  0  0  0  0  0  0  0  0  0  0
   14.7420   40.0208   17.2125 H   0  0  0  0  0  0  0  0  0  0  0  0
   15.5556   41.4213   16.4358 H   0  0  0  0  0  0  0  0  0  0  0  0
   13.7627   41.3110   16.4358 H   0  0  0  0  0  0  0  0  0  0  0  0
   14.1692   41.8011   14.1845 H   0  0  0  0  0  0  0  0  0  0  0  0
   15.2337   40.7044   13.2015 H   0  0  0  0  0  0  0  0  0  0  0  0
    9.2209   38.8273   13.1334 H   0  0  0  0  0  0  0  0  0  0  0  0
    9.2348   40.6071   12.6770 H   0  0  0  0  0  0  0  0  0  0  0  0
    9.3654   41.2889   10.2651 H   0  0  0  0  0  0  0  0  0  0  0  0
    8.5373   40.7562    7.9703 H   0  0  0  0  0  0  0  0  0  0  0  0
    7.7768   38.4367    7.4159 H   0  0  0  0  0  0  0  0  0  0  0  0
    7.3888   36.1425    8.0633 H   0  0  0  0  0  0  0  0  0  0  0  0
    7.4447   34.3202    9.7825 H   0  0  0  0  0  0  0  0  0  0  0  0
    8.2735   34.8117   12.0963 H   0  0  0  0  0  0  0  0  0  0  0  0
    9.0425   37.1142   12.6952 H   0  0  0  0  0  0  0  0  0  0  0  0
   10.5917   37.5907   10.5988 H   0  0  0  0  0  0  0  0  0  0  0  0
   12.4898   36.3844    9.4873 H   0  0  0  0  0  0  0  0  0  0  0  0
   15.3214   38.7213   11.7941 H   0  0  0  0  0  0  0  0  0  0  0  0
  1  2  1  0
  2  3  1  0
  3  4  1  0
  4  5  2  0
  4  6  1  0
  6  7  1  0
  6  8  1  0
  8  9  1  0
  9 10  2  0
 10 11  1  0
 11 12  2  0
 11 13  1  0
 10 14  1  0
 14 15  1  0
 15 16  1  0
 16 17  2  0
 17 18  1  0
 18 19  2  0
 19 20  1  0
 20 21  2  0
 21 22  1  0
 22 23  2  0
 23 24  1  0
 24 25  2  0
 14 26  1  0
 26 27  2  0
 27 28  1  0
 28 29  2  0
 29 30  1  0
 29 31  1  0
 31 32  2  0
 32  9  1  0
 25 16  1  0
 32 26  1  0
 25 20  1  0
  1 33  1  0
  1 34  1  0
  1 35  1  0
  2 36  1  0
  2 37  1  0
  7 38  1  0
  7 39  1  0
  7 40  1  0
  8 41  1  0
  8 42  1  0
 15 43  1  0
 15 44  1  0
 17 45  1  0
 18 46  1  0
 19 47  1  0
 21 48  1  0
 22 49  1  0
 23 50  1  0
 24 51  1  0
 27 52  1  0
 28 53  1  0
 31 54  1  0
M  CHG  1  13  -1
M  END
>  <meeko>  (60) 
{"free_energy": -5.35, "intermolecular_energy": -7.74, "internal_energy": -1.79, "cluster_size": 167, "cluster_id": 22, "rank_in_cluster": 105}

$$$$

     RDKit          3D

 54 57  0  0  0  0  0  0  0  0999 V2000
   19.1750   39.9580    9.8410 C   0  0  0  0  0  0  0  0  0  0  0  0
   17.9010   40.1160   10.6750 C   0  0  0  0  0  0  0  0  0  0  0  0
   16.8990   39.2510   10.1650 O   0  0  0  0  0  0  0  0  0  0  0  0
   15.6200   39.6750   10.0760 C   0  0  0  0  0  0  0  0  0  0  0  0
   15.0360   39.8450    9.0050 O   0  0  0  0  0  0  0  0  0  0  0  0
   15.0800   39.8780   11.3520 N   0  0  0  0  0  0  0  0  0  0  0  0
   15.3390   38.9580   12.4650 C   0  0  0  0  0  0  0  0  0  0  0  0
   14.1950   41.0170   11.6330 C   0  0  0  0  0  0  0  0  0  0  0  0
   12.7490   40.6010   11.7570 C   0  0  0  0  0  0  0  0  0  0  0  0
   11.8510   40.2770   10.7550 C   0  0  0  0  0  0  0  0  0  0  0  0
   12.0570   40.2090    9.2750 C   0  0  0  0  0  0  0  0  0  0  0  0
   11.8920   39.1150    8.6950 O   0  0  0  0  0  0  0  0  0  0  0  0
   12.4070   41.2250    8.6340 O   0  0  0  0  0  1  0  0  0  0  0  0
   10.5940   40.0130   11.3400 N   0  0  0  0  0  0  0  0  0  0  0  0
    9.3460   39.6210   10.6780 C   0  0  0  0  0  0  0  0  0  0  0  0
    9.2880   38.1560   10.2260 C   0  0  0  0  0  0  0  0  0  0  0  0
    9.9800   37.1480   10.9430 C   0  0  0  0  0  0  0  0  0  0  0  0
    9.9290   35.8040   10.5330 C   0  0  0  0  0  0  0  0  0  0  0  0
    9.1870   35.4440    9.3970 C   0  0  0  0  0  0  0  0  0  0  0  0
    8.4920   36.4270    8.6680 C   0  0  0  0  0  0  0  0  0  0  0  0
    7.7510   36.0470    7.5290 C   0  0  0  0  0  0  0  0  0  0  0  0
    7.0500   37.0130    6.7850 C   0  0  0  0  0  0  0  0  0  0  0  0
    7.0870   38.3620    7.1800 C   0  0  0  0  0  0  0  0  0  0  0  0
    7.8250   38.7480    8.3150 C   0  0  0  0  0  0  0  0  0  0  0  0
    8.5370   37.7880    9.0760 C   0  0  0  0  0  0  0  0  0  0  0  0
   10.6870   40.1690   12.7170 C   0  0  0  0  0  0  0  0  0  0  0  0
    9.7300   40.0390   13.7440 C   0  0  0  0  0  0  0  0  0  0  0  0
   10.1050   40.2500   15.0810 C   0  0  0  0  0  0  0  0  0  0  0  0
   11.4340   40.5890   15.3870 C   0  0  0  0  0  0  0  0  0  0  0  0
   11.8030   40.7890   16.6750 F   0  0  0  0  0  0  0  0  0  0  0  0
   12.3840   40.7200   14.3550 C   0  0  0  0  0  0  0  0  0  0  0  0
   12.0340   40.5200   12.9980 C   0  0  0  0  0  0  0  0  0  0  0  0
   20.0408   39.8506   10.5109 H   0  0  0  0  0  0  0  0  0  0  0  0
   19.0893   39.0636    9.2064 H   0  0  0  0  0  0  0  0  0  0  0  0
   19.3103   40.8462    9.2064 H   0  0  0  0  0  0  0  0  0  0  0  0
   18.1127   39.8563   11.7227 H   0  0  0  0  0  0  0  0  0  0  0  0
   17.5516   41.1577   10.6221 H   0  0  0  0  0  0  0  0  0  0  0  0
   15.1905   39.4854   13.4188 H   0  0  0  0  0  0  0  0  0  0  0  0
   14.6458   38.1060   12.4054 H   0  0  0  0  0  0  0  0  0  0  0  0
   16.3749   38.5928   12.4054 H   0  0  0  0  0  0  0  0  0  0  0  0
   14.5105   41.4859   12.5767 H   0  0  0  0  0  0  0  0  0  0  0  0
   14.2723   41.7197   10.7902 H   0  0  0  0  0  0  0  0  0  0  0  0
    8.5173   39.7952   11.3801 H   0  0  0  0  0  0  0  0  0  0  0  0
    9.2770   40.2292    9.7640 H   0  0  0  0  0  0  0  0  0  0  0  0
   10.5655   37.4212   11.8332 H   0  0  0  0  0  0  0  0  0  0  0  0
   10.4707   35.0344   11.1026 H   0  0  0  0  0  0  0  0  0  0  0  0
    9.1487   34.3925    9.0763 H   0  0  0  0  0  0  0  0  0  0  0  0
    7.7215   34.9912    7.2217 H   0  0  0  0  0  0  0  0  0  0  0  0
    6.4744   36.7140    5.8966 H   0  0  0  0  0  0  0  0  0  0  0  0
    6.5375   39.1182    6.6002 H   0  0  0  0  0  0  0  0  0  0  0  0
    7.8492   39.8062    8.6143 H   0  0  0  0  0  0  0  0  0  0  0  0
    8.6913   39.7728   13.4986 H   0  0  0  0  0  0  0  0  0  0  0  0
    9.3613   40.1503   15.8854 H   0  0  0  0  0  0  0  0  0  0  0  0
   13.4212   40.9837   14.6094 H   0  0  0  0  0  0  0  0  0  0  0  0
  1  2  1  0
  2  3  1  0
  3  4  1  0
  4  5  2  0
  4  6  1  0
  6  7  1  0
  6  8  1  0
  8  9  1  0
  9 10  2  0
 10 11  1  0
 11 12  2  0
 11 13  1  0
 10 14  1  0
 14 15  1  0
 15 16  1  0
 16 17  2  0
 17 18  1  0
 18 19  2  0
 19 20  1  0
 20 21  2  0
 21 22  1  0
 22 23  2  0
 23 24  1  0
 24 25  2  0
 14 26  1  0
 26 27  2  0
 27 28  1  0
 28 29  2  0
 29 30  1  0
 29 31  1  0
 31 32  2  0
 32  9  1  0
 25 16  1  0
 32 26  1  0
 25 20  1  0
  1 33  1  0
  1 34  1  0
  1 35  1  0
  2 36  1  0
  2 37  1  0
  7 38  1  0
  7 39  1  0
  7 40  1  0
  8 41  1  0
  8 42  1  0
 15 43  1  0
 15 44  1  0
 17 45  1  0
 18 46  1  0
 19 47  1  0
 21 48  1  0
 22 49  1  0
 23 50  1  0
 24 51  1  0
 27 52  1  0
 28 53  1  0
 31 54  1  0
M  CHG  1  13  -1
M  END
>  <meeko>  (61) 
{"free_energy": -5.68, "intermolecular_energy": -8.06, "internal_energy": -1.69, "cluster_size": 292, "cluster_id": 10, "rank_in_cluster": 207}

$$$$

     RDKit          3D

 54 57  0  0  0  0  0  0  0  0999 V2000
   14.9450   39.8980    8.4530 C   0  0  0  0  0  0  0  0  0  0  0  0
   13.8150   40.5330    7.6380 C   0  0  0  0  0  0  0  0  0  0  0  0
   12.7680   40.9200    8.5130 O   0  0  0  0  0  0  0  0  0  0  0  0
   12.0200   39.9810    9.1310 C   0  0  0  0  0  0  0  0  0  0  0  0
   11.8820   38.8340    8.7010 O   0  0  0  0  0  0  0  0  0  0  0  0
   11.4510   40.4980   10.3020 N   0  0  0  0  0  0  0  0  0  0  0  0
   10.1700   41.2130   10.2970 C   0  0  0  0  0  0  0  0  0  0  0  0
   12.1290   40.3720   11.5980 C   0  0  0  0  0  0  0  0  0  0  0  0
   11.4200   39.4120   12.5250 C   0  0  0  0  0  0  0  0  0  0  0  0
   11.5310   39.2930   13.8990 C   0  0  0  0  0  0  0  0  0  0  0  0
   12.3490   40.0920   14.8630 C   0  0  0  0  0  0  0  0  0  0  0  0
   13.4840   40.4790   14.5110 O   0  0  0  0  0  0  0  0  0  0  0  0
   11.9130   40.3520   16.0060 O   0  0  0  0  0  1  0  0  0  0  0  0
   10.7260   38.2150   14.3270 N   0  0  0  0  0  0  0  0  0  0  0  0
   10.5190   37.7200   15.6910 C   0  0  0  0  0  0  0  0  0  0  0  0
   10.0140   36.2740   15.7820 C   0  0  0  0  0  0  0  0  0  0  0  0
   10.8080   35.1970   15.3140 C   0  0  0  0  0  0  0  0  0  0  0  0
   10.3490   33.8700   15.3960 C   0  0  0  0  0  0  0  0  0  0  0  0
    9.0860   33.5970   15.9440 C   0  0  0  0  0  0  0  0  0  0  0  0
    8.2780   34.6490   16.4140 C   0  0  0  0  0  0  0  0  0  0  0  0
    7.0120   34.3560   16.9620 C   0  0  0  0  0  0  0  0  0  0  0  0
    6.1880   35.3920   17.4370 C   0  0  0  0  0  0  0  0  0  0  0  0
    6.6290   36.7250   17.3650 C   0  0  0  0  0  0  0  0  0  0  0  0
    7.8920   37.0250   16.8190 C   0  0  0  0  0  0  0  0  0  0  0  0
    8.7350   35.9940   16.3360 C   0  0  0  0  0  0  0  0  0  0  0  0
   10.1010   37.6450   13.2260 C   0  0  0  0  0  0  0  0  0  0  0  0
    9.2190   36.5510   13.1080 C   0  0  0  0  0  0  0  0  0  0  0  0
    8.7190   36.1860   11.8470 C   0  0  0  0  0  0  0  0  0  0  0  0
    9.1010   36.9170   10.7090 C   0  0  0  0  0  0  0  0  0  0  0  0
    8.6190   36.5730    9.4910 F   0  0  0  0  0  0  0  0  0  0  0  0
    9.9850   38.0060   10.8340 C   0  0  0  0  0  0  0  0  0  0  0  0
   10.5100   38.3930   12.0900 C   0  0  0  0  0  0  0  0  0  0  0  0
   14.7344   40.0164    9.5261 H   0  0  0  0  0  0  0  0  0  0  0  0
   15.0162   38.8277    8.2092 H   0  0  0  0  0  0  0  0  0  0  0  0
   15.8962   40.3937    8.2092 H   0  0  0  0  0  0  0  0  0  0  0  0
   14.1967   41.4177    7.1074 H   0  0  0  0  0  0  0  0  0  0  0  0
   13.4343   39.8057    6.9059 H   0  0  0  0  0  0  0  0  0  0  0  0
    9.8467   41.3934   11.3328 H   0  0  0  0  0  0  0  0  0  0  0  0
   10.2891   42.1751    9.7772 H   0  0  0  0  0  0  0  0  0  0  0  0
    9.4136   40.6066    9.7772 H   0  0  0  0  0  0  0  0  0  0  0  0
   13.1530   40.0081   11.4277 H   0  0  0  0  0  0  0  0  0  0  0  0
   12.1291   41.3629   12.0756 H   0  0  0  0  0  0  0  0  0  0  0  0
   11.4779   37.7817   16.2265 H   0  0  0  0  0  0  0  0  0  0  0  0
    9.7332   38.3504   16.1328 H   0  0  0  0  0  0  0  0  0  0  0  0
   11.7978   35.4021   14.8802 H   0  0  0  0  0  0  0  0  0  0  0  0
   10.9798   33.0462   15.0307 H   0  0  0  0  0  0  0  0  0  0  0  0
    8.7271   32.5590   16.0062 H   0  0  0  0  0  0  0  0  0  0  0  0
    6.6676   33.3128   17.0181 H   0  0  0  0  0  0  0  0  0  0  0  0
    5.2011   35.1600   17.8637 H   0  0  0  0  0  0  0  0  0  0  0  0
    5.9855   37.5362   17.7363 H   0  0  0  0  0  0  0  0  0  0  0  0
    8.2276   38.0713   16.7670 H   0  0  0  0  0  0  0  0  0  0  0  0
    8.9228   35.9839   14.0028 H   0  0  0  0  0  0  0  0  0  0  0  0
    8.0320   35.3324   11.7507 H   0  0  0  0  0  0  0  0  0  0  0  0
   10.2742   38.5690    9.9344 H   0  0  0  0  0  0  0  0  0  0  0  0
  1  2  1  0
  2  3  1  0
  3  4  1  0
  4  5  2  0
  4  6  1  0
  6  7  1  0
  6  8  1  0
  8  9  1  0
  9 10  2  0
 10 11  1  0
 11 12  2  0
 11 13  1  0
 10 14  1  0
 14 15  1  0
 15 16  1  0
 16 17  2  0
 17 18  1  0
 18 19  2  0
 19 20  1  0
 20 21  2  0
 21 22  1  0
 22 23  2  0
 23 24  1  0
 24 25  2  0
 14 26  1  0
 26 27  2  0
 27 28  1  0
 28 29  2  0
 29 30  1  0
 29 31  1  0
 31 32  2  0
 32  9  1  0
 25 16  1  0
 32 26  1  0
 25 20  1  0
  1 33  1  0
  1 34  1  0
  1 35  1  0
  2 36  1  0
  2 37  1  0
  7 38  1  0
  7 39  1  0
  7 40  1  0
  8 41  1  0
  8 42  1  0
 15 43  1  0
 15 44  1  0
 17 45  1  0
 18 46  1  0
 19 47  1  0
 21 48  1  0
 22 49  1  0
 23 50  1  0
 24 51  1  0
 27 52  1  0
 28 53  1  0
 31 54  1  0
M  CHG  1  13  -1
M  END
>  <meeko>  (62) 
{"free_energy": -6.24, "intermolecular_energy": -8.62, "internal_energy": -1.3, "cluster_size": 191, "cluster_id": 13, "rank_in_cluster": 26}

$$$$

     RDKit          3D

 54 57  0  0  0  0  0  0  0  0999 V2000
   11.6560   44.7210   13.2410 C   0  0  0  0  0  0  0  0  0  0  0  0
   11.0600   44.0600   14.4860 C   0  0  0  0  0  0  0  0  0  0  0  0
   10.6240   42.7510   14.1560 O   0  0  0  0  0  0  0  0  0  0  0  0
   11.0640   41.6920   14.8680 C   0  0  0  0  0  0  0  0  0  0  0  0
   10.3670   41.0850   15.6830 O   0  0  0  0  0  0  0  0  0  0  0  0
   12.3940   41.3970   14.5400 N   0  0  0  0  0  0  0  0  0  0  0  0
   13.3760   40.9900   15.5510 C   0  0  0  0  0  0  0  0  0  0  0  0
   12.8810   41.5110   13.1590 C   0  0  0  0  0  0  0  0  0  0  0  0
   12.6450   40.2490   12.3630 C   0  0  0  0  0  0  0  0  0  0  0  0
   11.4610   39.5650   12.1540 C   0  0  0  0  0  0  0  0  0  0  0  0
   10.0760   39.8900   12.6190 C   0  0  0  0  0  0  0  0  0  0  0  0
    9.5300   39.1340   13.4510 O   0  0  0  0  0  0  0  0  0  0  0  0
    9.4710   40.8870   12.1690 O   0  0  0  0  0  1  0  0  0  0  0  0
   11.7340   38.4030   11.3990 N   0  0  0  0  0  0  0  0  0  0  0  0
   10.7950   37.3810   10.9290 C   0  0  0  0  0  0  0  0  0  0  0  0
    9.7240   37.8890    9.9550 C   0  0  0  0  0  0  0  0  0  0  0  0
    9.6160   39.2690    9.6480 C   0  0  0  0  0  0  0  0  0  0  0  0
    8.6370   39.7380    8.7560 C   0  0  0  0  0  0  0  0  0  0  0  0
    7.7440   38.8360    8.1550 C   0  0  0  0  0  0  0  0  0  0  0  0
    7.8290   37.4610    8.4450 C   0  0  0  0  0  0  0  0  0  0  0  0
    6.9240   36.5700    7.8320 C   0  0  0  0  0  0  0  0  0  0  0  0
    6.9910   35.1920    8.1070 C   0  0  0  0  0  0  0  0  0  0  0  0
    7.9640   34.7030    8.9960 C   0  0  0  0  0  0  0  0  0  0  0  0
    8.8700   35.5870    9.6110 C   0  0  0  0  0  0  0  0  0  0  0  0
    8.8180   36.9780    9.3450 C   0  0  0  0  0  0  0  0  0  0  0  0
   13.0940   38.3450   11.1260 C   0  0  0  0  0  0  0  0  0  0  0  0
   13.8730   37.3970   10.4310 C   0  0  0  0  0  0  0  0  0  0  0  0
   15.2570   37.5930   10.2930 C   0  0  0  0  0  0  0  0  0  0  0  0
   15.8580   38.7350   10.8500 C   0  0  0  0  0  0  0  0  0  0  0  0
   17.1910   38.9310   10.7180 F   0  0  0  0  0  0  0  0  0  0  0  0
   15.0740   39.6750   11.5470 C   0  0  0  0  0  0  0  0  0  0  0  0
   13.6780   39.5020   11.7070 C   0  0  0  0  0  0  0  0  0  0  0  0
   12.3638   45.5059   13.5458 H   0  0  0  0  0  0  0  0  0  0  0  0
   12.1833   43.9646   12.6411 H   0  0  0  0  0  0  0  0  0  0  0  0
   10.8493   45.1675   12.6411 H   0  0  0  0  0  0  0  0  0  0  0  0
   11.8245   44.0051   15.2750 H   0  0  0  0  0  0  0  0  0  0  0  0
   10.2071   44.6535   14.8469 H   0  0  0  0  0  0  0  0  0  0  0  0
   12.9612   41.1619   16.5552 H   0  0  0  0  0  0  0  0  0  0  0  0
   13.6077   39.9217   15.4280 H   0  0  0  0  0  0  0  0  0  0  0  0
   14.2955   41.5812   15.4280 H   0  0  0  0  0  0  0  0  0  0  0  0
   12.3569   42.3433   12.6665 H   0  0  0  0  0  0  0  0  0  0  0  0
   13.9661   41.6870   13.1978 H   0  0  0  0  0  0  0  0  0  0  0  0
   11.3721   36.5934   10.4224 H   0  0  0  0  0  0  0  0  0  0  0  0
   10.2579   37.0218   11.8192 H   0  0  0  0  0  0  0  0  0  0  0  0
   10.3095   39.9836   10.1154 H   0  0  0  0  0  0  0  0  0  0  0  0
    8.5700   40.8121    8.5283 H   0  0  0  0  0  0  0  0  0  0  0  0
    6.9775   39.2041    7.4571 H   0  0  0  0  0  0  0  0  0  0  0  0
    6.1631   36.9538    7.1365 H   0  0  0  0  0  0  0  0  0  0  0  0
    6.2839   34.4990    7.6277 H   0  0  0  0  0  0  0  0  0  0  0  0
    8.0174   33.6257    9.2117 H   0  0  0  0  0  0  0  0  0  0  0  0
    9.6268   35.1940   10.3058 H   0  0  0  0  0  0  0  0  0  0  0  0
   13.3973   36.5050    9.9974 H   0  0  0  0  0  0  0  0  0  0  0  0
   15.8679   36.8559    9.7513 H   0  0  0  0  0  0  0  0  0  0  0  0
   15.5578   40.5644   11.9771 H   0  0  0  0  0  0  0  0  0  0  0  0
  1  2  1  0
  2  3  1  0
  3  4  1  0
  4  5  2  0
  4  6  1  0
  6  7  1  0
  6  8  1  0
  8  9  1  0
  9 10  2  0
 10 11  1  0
 11 12  2  0
 11 13  1  0
 10 14  1  0
 14 15  1  0
 15 16  1  0
 16 17  2  0
 17 18  1  0
 18 19  2  0
 19 20  1  0
 20 21  2  0
 21 22  1  0
 22 23  2  0
 23 24  1  0
 24 25  2  0
 14 26  1  0
 26 27  2  0
 27 28  1  0
 28 29  2  0
 29 30  1  0
 29 31  1  0
 31 32  2  0
 32  9  1  0
 25 16  1  0
 32 26  1  0
 25 20  1  0
  1 33  1  0
  1 34  1  0
  1 35  1  0
  2 36  1  0
  2 37  1  0
  7 38  1  0
  7 39  1  0
  7 40  1  0
  8 41  1  0
  8 42  1  0
 15 43  1  0
 15 44  1  0
 17 45  1  0
 18 46  1  0
 19 47  1  0
 21 48  1  0
 22 49  1  0
 23 50  1  0
 24 51  1  0
 27 52  1  0
 28 53  1  0
 31 54  1  0
M  CHG  1  13  -1
M  END
>  <meeko>  (63) 
{"free_energy": -5.85, "intermolecular_energy": -8.24, "internal_energy": -1.46, "cluster_size": 167, "cluster_id": 22, "rank_in_cluster": 59}

$$$$

     RDKit          3D

 54 57  0  0  0  0  0  0  0  0999 V2000
   11.6730   36.5980   17.6330 C   0  0  0  0  0  0  0  0  0  0  0  0
   12.0470   36.2950   16.1800 C   0  0  0  0  0  0  0  0  0  0  0  0
   12.4550   37.4950   15.5430 O   0  0  0  0  0  0  0  0  0  0  0  0
   11.6990   38.6090   15.6490 C   0  0  0  0  0  0  0  0  0  0  0  0
   10.4670   38.5960   15.6230 O   0  0  0  0  0  0  0  0  0  0  0  0
   12.5100   39.7410   15.7950 N   0  0  0  0  0  0  0  0  0  0  0  0
   13.2360   40.0260   17.0380 C   0  0  0  0  0  0  0  0  0  0  0  0
   12.6500   40.7230   14.7110 C   0  0  0  0  0  0  0  0  0  0  0  0
   12.0110   40.2520   13.4260 C   0  0  0  0  0  0  0  0  0  0  0  0
   10.7220   40.4640   12.9710 C   0  0  0  0  0  0  0  0  0  0  0  0
    9.6060   41.2430   13.5940 C   0  0  0  0  0  0  0  0  0  0  0  0
    9.4090   41.1310   14.8230 O   0  0  0  0  0  0  0  0  0  0  0  0
    8.8740   41.9760   12.8940 O   0  0  0  0  0  1  0  0  0  0  0  0
   10.5540   39.7800   11.7480 N   0  0  0  0  0  0  0  0  0  0  0  0
    9.3650   39.7230   10.8930 C   0  0  0  0  0  0  0  0  0  0  0  0
    8.8900   38.3060   10.5430 C   0  0  0  0  0  0  0  0  0  0  0  0
    9.1000   37.2280   11.4390 C   0  0  0  0  0  0  0  0  0  0  0  0
    8.6670   35.9290   11.1220 C   0  0  0  0  0  0  0  0  0  0  0  0
    8.0170   35.6830    9.9020 C   0  0  0  0  0  0  0  0  0  0  0  0
    7.7990   36.7370    8.9940 C   0  0  0  0  0  0  0  0  0  0  0  0
    7.1450   36.4710    7.7730 C   0  0  0  0  0  0  0  0  0  0  0  0
    6.9170   37.5080    6.8510 C   0  0  0  0  0  0  0  0  0  0  0  0
    7.3420   38.8150    7.1500 C   0  0  0  0  0  0  0  0  0  0  0  0
    7.9950   39.0870    8.3670 C   0  0  0  0  0  0  0  0  0  0  0  0
    8.2330   38.0540    9.3070 C   0  0  0  0  0  0  0  0  0  0  0  0
   11.7360   39.1300   11.4210 C   0  0  0  0  0  0  0  0  0  0  0  0
   12.0870   38.3100   10.3280 C   0  0  0  0  0  0  0  0  0  0  0  0
   13.3840   37.7780   10.2390 C   0  0  0  0  0  0  0  0  0  0  0  0
   14.3260   38.0670   11.2420 C   0  0  0  0  0  0  0  0  0  0  0  0
   15.5790   37.5600   11.1600 F   0  0  0  0  0  0  0  0  0  0  0  0
   13.9670   38.8830   12.3320 C   0  0  0  0  0  0  0  0  0  0  0  0
   12.6660   39.4290   12.4520 C   0  0  0  0  0  0  0  0  0  0  0  0
   12.3484   36.0509   18.3072 H   0  0  0  0  0  0  0  0  0  0  0  0
   11.7663   37.6783   17.8180 H   0  0  0  0  0  0  0  0  0  0  0  0
   10.6356   36.2826   17.8180 H   0  0  0  0  0  0  0  0  0  0  0  0
   12.8716   35.5673   16.1565 H   0  0  0  0  0  0  0  0  0  0  0  0
   11.1766   35.8753   15.6544 H   0  0  0  0  0  0  0  0  0  0  0  0
   12.5997   39.7762   17.8998 H   0  0  0  0  0  0  0  0  0  0  0  0
   14.1545   39.4217   17.0730 H   0  0  0  0  0  0  0  0  0  0  0  0
   13.4981   41.0938   17.0730 H   0  0  0  0  0  0  0  0  0  0  0  0
   12.1703   41.6631   15.0210 H   0  0  0  0  0  0  0  0  0  0  0  0
   13.7242   40.8643   14.5210 H   0  0  0  0  0  0  0  0  0  0  0  0
    8.5449   40.2400   11.4127 H   0  0  0  0  0  0  0  0  0  0  0  0
    9.6451   40.1990    9.9417 H   0  0  0  0  0  0  0  0  0  0  0  0
    9.6094   37.4108   12.3967 H   0  0  0  0  0  0  0  0  0  0  0  0
    8.8374   35.1046   11.8301 H   0  0  0  0  0  0  0  0  0  0  0  0
    7.6778   34.6661    9.6553 H   0  0  0  0  0  0  0  0  0  0  0  0
    6.8121   35.4486    7.5411 H   0  0  0  0  0  0  0  0  0  0  0  0
    6.4078   37.2977    5.8989 H   0  0  0  0  0  0  0  0  0  0  0  0
    7.1635   39.6275    6.4303 H   0  0  0  0  0  0  0  0  0  0  0  0
    8.3240   40.1125    8.5906 H   0  0  0  0  0  0  0  0  0  0  0  0
   11.3458   38.0875    9.5463 H   0  0  0  0  0  0  0  0  0  0  0  0
   13.6615   37.1381    9.3884 H   0  0  0  0  0  0  0  0  0  0  0  0
   14.7148   39.1014   13.1086 H   0  0  0  0  0  0  0  0  0  0  0  0
  1  2  1  0
  2  3  1  0
  3  4  1  0
  4  5  2  0
  4  6  1  0
  6  7  1  0
  6  8  1  0
  8  9  1  0
  9 10  2  0
 10 11  1  0
 11 12  2  0
 11 13  1  0
 10 14  1  0
 14 15  1  0
 15 16  1  0
 16 17  2  0
 17 18  1  0
 18 19  2  0
 19 20  1  0
 20 21  2  0
 21 22  1  0
 22 23  2  0
 23 24  1  0
 24 25  2  0
 14 26  1  0
 26 27  2  0
 27 28  1  0
 28 29  2  0
 29 30  1  0
 29 31  1  0
 31 32  2  0
 32  9  1  0
 25 16  1  0
 32 26  1  0
 25 20  1  0
  1 33  1  0
  1 34  1  0
  1 35  1  0
  2 36  1  0
  2 37  1  0
  7 38  1  0
  7 39  1  0
  7 40  1  0
  8 41  1  0
  8 42  1  0
 15 43  1  0
 15 44  1  0
 17 45  1  0
 18 46  1  0
 19 47  1  0
 21 48  1  0
 22 49  1  0
 23 50  1  0
 24 51  1  0
 27 52  1  0
 28 53  1  0
 31 54  1  0
M  CHG  1  13  -1
M  END
>  <meeko>  (64) 
{"free_energy": -6.33, "intermolecular_energy": -8.71, "internal_energy": -1.95, "cluster_size": 167, "cluster_id": 22, "rank_in_cluster": 8}

$$$$

     RDKit          3D

 54 57  0  0  0  0  0  0  0  0999 V2000
   12.9780   40.6830    8.8990 C   0  0  0  0  0  0  0  0  0  0  0  0
   12.3500   41.7150    9.8400 C   0  0  0  0  0  0  0  0  0  0  0  0
   12.4280   41.2390   11.1740 O   0  0  0  0  0  0  0  0  0  0  0  0
   12.4370   42.1120   12.2040 C   0  0  0  0  0  0  0  0  0  0  0  0
   13.3660   42.8900   12.4250 O   0  0  0  0  0  0  0  0  0  0  0  0
   11.2590   42.0000   12.9540 N   0  0  0  0  0  0  0  0  0  0  0  0
    9.9740   41.6510   12.3390 C   0  0  0  0  0  0  0  0  0  0  0  0
   11.2480   42.2570   14.4000 C   0  0  0  0  0  0  0  0  0  0  0  0
   11.5720   41.0200   15.2030 C   0  0  0  0  0  0  0  0  0  0  0  0
   10.8260   40.4130   16.1980 C   0  0  0  0  0  0  0  0  0  0  0  0
    9.4800   40.7790   16.7390 C   0  0  0  0  0  0  0  0  0  0  0  0
    8.9390   41.8320   16.3400 O   0  0  0  0  0  0  0  0  0  0  0  0
    8.9170   40.0550   17.5890 O   0  0  0  0  0  1  0  0  0  0  0  0
   11.5570   39.3190   16.7100 N   0  0  0  0  0  0  0  0  0  0  0  0
   11.1670   38.3770   17.7640 C   0  0  0  0  0  0  0  0  0  0  0  0
   10.6690   37.0160   17.2610 C   0  0  0  0  0  0  0  0  0  0  0  0
   11.4650   36.2270   16.3940 C   0  0  0  0  0  0  0  0  0  0  0  0
   11.0130   34.9790   15.9300 C   0  0  0  0  0  0  0  0  0  0  0  0
    9.7540   34.4980   16.3240 C   0  0  0  0  0  0  0  0  0  0  0  0
    8.9440   35.2640   17.1840 C   0  0  0  0  0  0  0  0  0  0  0  0
    7.6820   34.7660   17.5690 C   0  0  0  0  0  0  0  0  0  0  0  0
    6.8560   35.5140   18.4260 C   0  0  0  0  0  0  0  0  0  0  0  0
    7.2910   36.7640   18.9010 C   0  0  0  0  0  0  0  0  0  0  0  0
    8.5490   37.2680   18.5200 C   0  0  0  0  0  0  0  0  0  0  0  0
    9.3940   36.5270   17.6570 C   0  0  0  0  0  0  0  0  0  0  0  0
   12.7710   39.2260   16.0420 C   0  0  0  0  0  0  0  0  0  0  0  0
   13.8540   38.3330   16.1800 C   0  0  0  0  0  0  0  0  0  0  0  0
   14.9800   38.4640   15.3510 C   0  0  0  0  0  0  0  0  0  0  0  0
   15.0200   39.4860   14.3860 C   0  0  0  0  0  0  0  0  0  0  0  0
   16.1010   39.6150   13.5810 F   0  0  0  0  0  0  0  0  0  0  0  0
   13.9360   40.3760   14.2570 C   0  0  0  0  0  0  0  0  0  0  0  0
   12.7900   40.2730   15.0830 C   0  0  0  0  0  0  0  0  0  0  0  0
   13.4597   39.8915    9.4919 H   0  0  0  0  0  0  0  0  0  0  0  0
   12.1955   40.2412    8.2646 H   0  0  0  0  0  0  0  0  0  0  0  0
   13.7300   41.1750    8.2646 H   0  0  0  0  0  0  0  0  0  0  0  0
   12.8939   42.6675    9.7570 H   0  0  0  0  0  0  0  0  0  0  0  0
   11.2966   41.8726    9.5651 H   0  0  0  0  0  0  0  0  0  0  0  0
    9.2331   41.4498   13.1268 H   0  0  0  0  0  0  0  0  0  0  0  0
    9.6272   42.4875   11.7145 H   0  0  0  0  0  0  0  0  0  0  0  0
   10.0980   40.7540   11.7145 H   0  0  0  0  0  0  0  0  0  0  0  0
   11.9945   43.0323   14.6274 H   0  0  0  0  0  0  0  0  0  0  0  0
   10.2344   42.5827   14.6768 H   0  0  0  0  0  0  0  0  0  0  0  0
   12.0414   38.2041   18.4086 H   0  0  0  0  0  0  0  0  0  0  0  0
   10.3207   38.8391   18.2935 H   0  0  0  0  0  0  0  0  0  0  0  0
   12.4520   36.5966   16.0790 H   0  0  0  0  0  0  0  0  0  0  0  0
   11.6455   34.3797   15.2586 H   0  0  0  0  0  0  0  0  0  0  0  0
    9.4002   33.5219   15.9605 H   0  0  0  0  0  0  0  0  0  0  0  0
    7.3425   33.7880   17.1971 H   0  0  0  0  0  0  0  0  0  0  0  0
    5.8722   35.1226   18.7242 H   0  0  0  0  0  0  0  0  0  0  0  0
    6.6462   37.3499   19.5725 H   0  0  0  0  0  0  0  0  0  0  0  0
    8.8795   38.2474   18.8962 H   0  0  0  0  0  0  0  0  0  0  0  0
   13.8167   37.5349   16.9361 H   0  0  0  0  0  0  0  0  0  0  0  0
   15.8270   37.7701   15.4561 H   0  0  0  0  0  0  0  0  0  0  0  0
   13.9805   41.1698   13.4968 H   0  0  0  0  0  0  0  0  0  0  0  0
  1  2  1  0
  2  3  1  0
  3  4  1  0
  4  5  2  0
  4  6  1  0
  6  7  1  0
  6  8  1  0
  8  9  1  0
  9 10  2  0
 10 11  1  0
 11 12  2  0
 11 13  1  0
 10 14  1  0
 14 15  1  0
 15 16  1  0
 16 17  2  0
 17 18  1  0
 18 19  2  0
 19 20  1  0
 20 21  2  0
 21 22  1  0
 22 23  2  0
 23 24  1  0
 24 25  2  0
 14 26  1  0
 26 27  2  0
 27 28  1  0
 28 29  2  0
 29 30  1  0
 29 31  1  0
 31 32  2  0
 32  9  1  0
 25 16  1  0
 32 26  1  0
 25 20  1  0
  1 33  1  0
  1 34  1  0
  1 35  1  0
  2 36  1  0
  2 37  1  0
  7 38  1  0
  7 39  1  0
  7 40  1  0
  8 41  1  0
  8 42  1  0
 15 43  1  0
 15 44  1  0
 17 45  1  0
 18 46  1  0
 19 47  1  0
 21 48  1  0
 22 49  1  0
 23 50  1  0
 24 51  1  0
 27 52  1  0
 28 53  1  0
 31 54  1  0
M  CHG  1  13  -1
M  END
>  <meeko>  (65) 
{"free_energy": -4.1, "intermolecular_energy": -6.49, "internal_energy": -1.69, "cluster_size": 1, "cluster_id": 309, "rank_in_cluster": 1}

$$$$

     RDKit          3D

 54 57  0  0  0  0  0  0  0  0999 V2000
   15.6320   40.1190    7.5820 C   0  0  0  0  0  0  0  0  0  0  0  0
   15.2880   38.8310    8.3350 C   0  0  0  0  0  0  0  0  0  0  0  0
   14.6780   39.1620    9.5720 O   0  0  0  0  0  0  0  0  0  0  0  0
   14.4870   38.2090   10.5090 C   0  0  0  0  0  0  0  0  0  0  0  0
   14.3210   37.0180   10.2390 O   0  0  0  0  0  0  0  0  0  0  0  0
   14.5140   38.7680   11.7920 N   0  0  0  0  0  0  0  0  0  0  0  0
   15.5340   38.4020   12.7820 C   0  0  0  0  0  0  0  0  0  0  0  0
   13.4960   39.7360   12.2230 C   0  0  0  0  0  0  0  0  0  0  0  0
   12.0960   39.1800   12.1140 C   0  0  0  0  0  0  0  0  0  0  0  0
   11.1900   39.3110   11.0770 C   0  0  0  0  0  0  0  0  0  0  0  0
   11.3420   40.0040    9.7590 C   0  0  0  0  0  0  0  0  0  0  0  0
   11.6600   39.3280    8.7580 O   0  0  0  0  0  0  0  0  0  0  0  0
   11.1720   41.2400    9.6670 O   0  0  0  0  0  1  0  0  0  0  0  0
    9.9840   38.6770   11.4440 N   0  0  0  0  0  0  0  0  0  0  0  0
    8.7480   38.5500   10.6660 C   0  0  0  0  0  0  0  0  0  0  0  0
    8.6620   37.2900    9.7940 C   0  0  0  0  0  0  0  0  0  0  0  0
    9.2150   36.0620   10.2360 C   0  0  0  0  0  0  0  0  0  0  0  0
    9.1380   34.9060    9.4410 C   0  0  0  0  0  0  0  0  0  0  0  0
    8.5090   34.9560    8.1870 C   0  0  0  0  0  0  0  0  0  0  0  0
    7.9540   36.1650    7.7250 C   0  0  0  0  0  0  0  0  0  0  0  0
    7.3260   36.1970    6.4620 C   0  0  0  0  0  0  0  0  0  0  0  0
    6.7650   37.3930    5.9800 C   0  0  0  0  0  0  0  0  0  0  0  0
    6.8300   38.5610    6.7610 C   0  0  0  0  0  0  0  0  0  0  0  0
    7.4560   38.5350    8.0220 C   0  0  0  0  0  0  0  0  0  0  0  0
    8.0260   37.3390    8.5230 C   0  0  0  0  0  0  0  0  0  0  0  0
   10.1180   38.1400   12.7180 C   0  0  0  0  0  0  0  0  0  0  0  0
    9.2170   37.4310   13.5380 C   0  0  0  0  0  0  0  0  0  0  0  0
    9.6260   36.9870   14.8070 C   0  0  0  0  0  0  0  0  0  0  0  0
   10.9330   37.2520   15.2500 C   0  0  0  0  0  0  0  0  0  0  0  0
   11.3350   36.8230   16.4700 F   0  0  0  0  0  0  0  0  0  0  0  0
   11.8260   37.9640   14.4260 C   0  0  0  0  0  0  0  0  0  0  0  0
   11.4410   38.4300   13.1460 C   0  0  0  0  0  0  0  0  0  0  0  0
   15.8460   40.9202    8.3047 H   0  0  0  0  0  0  0  0  0  0  0  0
   16.5163   39.9493    6.9502 H   0  0  0  0  0  0  0  0  0  0  0  0
   14.7808   40.4128    6.9502 H   0  0  0  0  0  0  0  0  0  0  0  0
   14.5936   38.2270    7.7325 H   0  0  0  0  0  0  0  0  0  0  0  0
   16.2064   38.2542    8.5188 H   0  0  0  0  0  0  0  0  0  0  0  0
   15.1304   38.5468   13.7950 H   0  0  0  0  0  0  0  0  0  0  0  0
   15.8147   37.3471   12.6465 H   0  0  0  0  0  0  0  0  0  0  0  0
   16.4213   39.0378   12.6465 H   0  0  0  0  0  0  0  0  0  0  0  0
   13.6880   40.0086   13.2712 H   0  0  0  0  0  0  0  0  0  0  0  0
   13.5630   40.6127   11.5620 H   0  0  0  0  0  0  0  0  0  0  0  0
    7.9015   38.5383   11.3683 H   0  0  0  0  0  0  0  0  0  0  0  0
    8.7279   39.4060    9.9754 H   0  0  0  0  0  0  0  0  0  0  0  0
    9.7119   36.0133   11.2162 H   0  0  0  0  0  0  0  0  0  0  0  0
    9.5709   33.9612    9.8015 H   0  0  0  0  0  0  0  0  0  0  0  0
    8.4496   34.0506    7.5651 H   0  0  0  0  0  0  0  0  0  0  0  0
    7.2750   35.2830    5.8521 H   0  0  0  0  0  0  0  0  0  0  0  0
    6.2766   37.4151    4.9946 H   0  0  0  0  0  0  0  0  0  0  0  0
    6.3907   39.4971    6.3857 H   0  0  0  0  0  0  0  0  0  0  0  0
    7.5029   39.4539    8.6249 H   0  0  0  0  0  0  0  0  0  0  0  0
    8.1955   37.2256   13.1852 H   0  0  0  0  0  0  0  0  0  0  0  0
    8.9260   36.4343   15.4509 H   0  0  0  0  0  0  0  0  0  0  0  0
   12.8465   38.1626   14.7854 H   0  0  0  0  0  0  0  0  0  0  0  0
  1  2  1  0
  2  3  1  0
  3  4  1  0
  4  5  2  0
  4  6  1  0
  6  7  1  0
  6  8  1  0
  8  9  1  0
  9 10  2  0
 10 11  1  0
 11 12  2  0
 11 13  1  0
 10 14  1  0
 14 15  1  0
 15 16  1  0
 16 17  2  0
 17 18  1  0
 18 19  2  0
 19 20  1  0
 20 21  2  0
 21 22  1  0
 22 23  2  0
 23 24  1  0
 24 25  2  0
 14 26  1  0
 26 27  2  0
 27 28  1  0
 28 29  2  0
 29 30  1  0
 29 31  1  0
 31 32  2  0
 32  9  1  0
 25 16  1  0
 32 26  1  0
 25 20  1  0
  1 33  1  0
  1 34  1  0
  1 35  1  0
  2 36  1  0
  2 37  1  0
  7 38  1  0
  7 39  1  0
  7 40  1  0
  8 41  1  0
  8 42  1  0
 15 43  1  0
 15 44  1  0
 17 45  1  0
 18 46  1  0
 19 47  1  0
 21 48  1  0
 22 49  1  0
 23 50  1  0
 24 51  1  0
 27 52  1  0
 28 53  1  0
 31 54  1  0
M  CHG  1  13  -1
M  END
>  <meeko>  (66) 
{"free_energy": -6.99, "intermolecular_energy": -9.38, "internal_energy": -1.92, "cluster_size": 292, "cluster_id": 10, "rank_in_cluster": 17}

$$$$

     RDKit          3D

 54 57  0  0  0  0  0  0  0  0999 V2000
   12.9140   38.4380   12.3130 C   0  0  0  0  0  0  0  0  0  0  0  0
   13.1700   39.7320   11.5360 C   0  0  0  0  0  0  0  0  0  0  0  0
   13.0700   39.4690   10.1450 O   0  0  0  0  0  0  0  0  0  0  0  0
   11.8900   39.6320    9.5090 C   0  0  0  0  0  0  0  0  0  0  0  0
   11.4150   38.7980    8.7370 O   0  0  0  0  0  0  0  0  0  0  0  0
   11.3080   40.8570    9.8600 N   0  0  0  0  0  0  0  0  0  0  0  0
   12.0250   42.1300    9.7210 C   0  0  0  0  0  0  0  0  0  0  0  0
    9.9500   40.9240   10.4160 C   0  0  0  0  0  0  0  0  0  0  0  0
    9.7600   39.9760   11.5760 C   0  0  0  0  0  0  0  0  0  0  0  0
    9.9340   40.2140   12.9280 C   0  0  0  0  0  0  0  0  0  0  0  0
   10.3240   41.4750   13.6320 C   0  0  0  0  0  0  0  0  0  0  0  0
    9.5240   41.9780   14.4500 O   0  0  0  0  0  0  0  0  0  0  0  0
   11.4220   42.0240   13.3920 O   0  0  0  0  0  1  0  0  0  0  0  0
    9.7030   39.0140   13.6340 N   0  0  0  0  0  0  0  0  0  0  0  0
    9.7610   38.7830   15.0800 C   0  0  0  0  0  0  0  0  0  0  0  0
   10.1340   37.3520   15.4900 C   0  0  0  0  0  0  0  0  0  0  0  0
   11.4610   36.8760   15.3410 C   0  0  0  0  0  0  0  0  0  0  0  0
   11.8070   35.5660   15.7160 C   0  0  0  0  0  0  0  0  0  0  0  0
   10.8310   34.7060   16.2440 C   0  0  0  0  0  0  0  0  0  0  0  0
    9.5060   35.1540   16.4010 C   0  0  0  0  0  0  0  0  0  0  0  0
    8.5380   34.2770   16.9330 C   0  0  0  0  0  0  0  0  0  0  0  0
    7.2080   34.7030   17.0970 C   0  0  0  0  0  0  0  0  0  0  0  0
    6.8430   36.0100   16.7300 C   0  0  0  0  0  0  0  0  0  0  0  0
    7.8030   36.8910   16.1970 C   0  0  0  0  0  0  0  0  0  0  0  0
    9.1480   36.4780   16.0250 C   0  0  0  0  0  0  0  0  0  0  0  0
    9.3810   38.0070   12.7330 C   0  0  0  0  0  0  0  0  0  0  0  0
    9.0790   36.6420   12.9170 C   0  0  0  0  0  0  0  0  0  0  0  0
    8.7750   35.8360   11.8080 C   0  0  0  0  0  0  0  0  0  0  0  0
    8.7710   36.3970   10.5190 C   0  0  0  0  0  0  0  0  0  0  0  0
    8.4740   35.6260    9.4460 F   0  0  0  0  0  0  0  0  0  0  0  0
    9.0770   37.7600   10.3430 C   0  0  0  0  0  0  0  0  0  0  0  0
    9.3940   38.5960   11.4410 C   0  0  0  0  0  0  0  0  0  0  0  0
   12.9548   38.6444   13.3927 H   0  0  0  0  0  0  0  0  0  0  0  0
   11.9205   38.0442   12.0523 H   0  0  0  0  0  0  0  0  0  0  0  0
   13.6827   37.6956   12.0523 H   0  0  0  0  0  0  0  0  0  0  0  0
   12.4229   40.4869   11.8223 H   0  0  0  0  0  0  0  0  0  0  0  0
   14.1764   40.1099   11.7691 H   0  0  0  0  0  0  0  0  0  0  0  0
   12.2523   42.5336   10.7187 H   0  0  0  0  0  0  0  0  0  0  0  0
   12.9626   41.9645    9.1701 H   0  0  0  0  0  0  0  0  0  0  0  0
   11.3975   42.8460    9.1701 H   0  0  0  0  0  0  0  0  0  0  0  0
    9.7596   41.9504   10.7627 H   0  0  0  0  0  0  0  0  0  0  0  0
    9.2461   40.6318    9.6229 H   0  0  0  0  0  0  0  0  0  0  0  0
   10.5100   39.4669   15.5058 H   0  0  0  0  0  0  0  0  0  0  0  0
    8.7446   38.9590   15.4621 H   0  0  0  0  0  0  0  0  0  0  0  0
   12.2318   37.5419   14.9256 H   0  0  0  0  0  0  0  0  0  0  0  0
   12.8425   35.2148   15.5957 H   0  0  0  0  0  0  0  0  0  0  0  0
   11.1022   33.6806   16.5354 H   0  0  0  0  0  0  0  0  0  0  0  0
    8.8248   33.2549   17.2210 H   0  0  0  0  0  0  0  0  0  0  0  0
    6.4556   34.0157   17.5111 H   0  0  0  0  0  0  0  0  0  0  0  0
    5.8035   36.3455   16.8598 H   0  0  0  0  0  0  0  0  0  0  0  0
    7.5062   37.9108   15.9109 H   0  0  0  0  0  0  0  0  0  0  0  0
    9.0815   36.2090   13.9282 H   0  0  0  0  0  0  0  0  0  0  0  0
    8.5410   34.7702   11.9473 H   0  0  0  0  0  0  0  0  0  0  0  0
    9.0696   38.1854    9.3286 H   0  0  0  0  0  0  0  0  0  0  0  0
  1  2  1  0
  2  3  1  0
  3  4  1  0
  4  5  2  0
  4  6  1  0
  6  7  1  0
  6  8  1  0
  8  9  1  0
  9 10  2  0
 10 11  1  0
 11 12  2  0
 11 13  1  0
 10 14  1  0
 14 15  1  0
 15 16  1  0
 16 17  2  0
 17 18  1  0
 18 19  2  0
 19 20  1  0
 20 21  2  0
 21 22  1  0
 22 23  2  0
 23 24  1  0
 24 25  2  0
 14 26  1  0
 26 27  2  0
 27 28  1  0
 28 29  2  0
 29 30  1  0
 29 31  1  0
 31 32  2  0
 32  9  1  0
 25 16  1  0
 32 26  1  0
 25 20  1  0
  1 33  1  0
  1 34  1  0
  1 35  1  0
  2 36  1  0
  2 37  1  0
  7 38  1  0
  7 39  1  0
  7 40  1  0
  8 41  1  0
  8 42  1  0
 15 43  1  0
 15 44  1  0
 17 45  1  0
 18 46  1  0
 19 47  1  0
 21 48  1  0
 22 49  1  0
 23 50  1  0
 24 51  1  0
 27 52  1  0
 28 53  1  0
 31 54  1  0
M  CHG  1  13  -1
M  END
>  <meeko>  (67) 
{"free_energy": -5.97, "intermolecular_energy": -8.36, "internal_energy": -2.33, "cluster_size": 253, "cluster_id": 8, "rank_in_cluster": 149}

$$$$

     RDKit          3D

 54 57  0  0  0  0  0  0  0  0999 V2000
   17.0330   40.5190    6.4120 C   0  0  0  0  0  0  0  0  0  0  0  0
   15.9590   40.2560    7.4700 C   0  0  0  0  0  0  0  0  0  0  0  0
   16.4430   40.6670    8.7390 O   0  0  0  0  0  0  0  0  0  0  0  0
   16.0690   40.0030    9.8530 C   0  0  0  0  0  0  0  0  0  0  0  0
   16.6820   39.0330   10.3020 O   0  0  0  0  0  0  0  0  0  0  0  0
   14.9150   40.5770   10.4030 N   0  0  0  0  0  0  0  0  0  0  0  0
   14.3940   41.8700    9.9480 C   0  0  0  0  0  0  0  0  0  0  0  0
   14.1820   39.9180   11.4920 C   0  0  0  0  0  0  0  0  0  0  0  0
   12.7140   40.2740   11.4910 C   0  0  0  0  0  0  0  0  0  0  0  0
   11.7810   40.1000   10.4840 C   0  0  0  0  0  0  0  0  0  0  0  0
   11.9420   39.4830    9.1300 C   0  0  0  0  0  0  0  0  0  0  0  0
   11.2930   38.4500    8.8600 O   0  0  0  0  0  0  0  0  0  0  0  0
   12.7260   39.9820    8.2930 O   0  0  0  0  0  1  0  0  0  0  0  0
   10.5480   40.6410   10.9080 N   0  0  0  0  0  0  0  0  0  0  0  0
    9.2730   40.6780   10.1860 C   0  0  0  0  0  0  0  0  0  0  0  0
    8.7610   39.3120    9.7100 C   0  0  0  0  0  0  0  0  0  0  0  0
    8.2500   39.1450    8.3990 C   0  0  0  0  0  0  0  0  0  0  0  0
    7.7800   37.8950    7.9600 C   0  0  0  0  0  0  0  0  0  0  0  0
    7.8090   36.7900    8.8250 C   0  0  0  0  0  0  0  0  0  0  0  0
    8.3110   36.9310   10.1320 C   0  0  0  0  0  0  0  0  0  0  0  0
    8.3330   35.8100   10.9880 C   0  0  0  0  0  0  0  0  0  0  0  0
    8.8290   35.9280   12.2980 C   0  0  0  0  0  0  0  0  0  0  0  0
    9.3050   37.1690   12.7570 C   0  0  0  0  0  0  0  0  0  0  0  0
    9.2850   38.2920   11.9080 C   0  0  0  0  0  0  0  0  0  0  0  0
    8.7890   38.1910   10.5850 C   0  0  0  0  0  0  0  0  0  0  0  0
   10.6930   41.1620   12.1870 C   0  0  0  0  0  0  0  0  0  0  0  0
    9.7840   41.8160   13.0440 C   0  0  0  0  0  0  0  0  0  0  0  0
   10.2010   42.2410   14.3160 C   0  0  0  0  0  0  0  0  0  0  0  0
   11.5250   42.0090   14.7280 C   0  0  0  0  0  0  0  0  0  0  0  0
   11.9330   42.4120   15.9550 F   0  0  0  0  0  0  0  0  0  0  0  0
   12.4290   41.3580   13.8660 C   0  0  0  0  0  0  0  0  0  0  0  0
   12.0390   40.9250   12.5750 C   0  0  0  0  0  0  0  0  0  0  0  0
   17.9867   40.7525    6.9078 H   0  0  0  0  0  0  0  0  0  0  0  0
   17.1557   39.6244    5.7838 H   0  0  0  0  0  0  0  0  0  0  0  0
   16.7285   41.3691    5.7838 H   0  0  0  0  0  0  0  0  0  0  0  0
   15.0506   40.8242    7.2211 H   0  0  0  0  0  0  0  0  0  0  0  0
   15.7207   39.1824    7.4956 H   0  0  0  0  0  0  0  0  0  0  0  0
   14.1435   42.4918   10.8201 H   0  0  0  0  0  0  0  0  0  0  0  0
   15.1569   42.3797    9.3413 H   0  0  0  0  0  0  0  0  0  0  0  0
   13.4908   41.7084    9.3413 H   0  0  0  0  0  0  0  0  0  0  0  0
   14.2821   38.8286   11.3775 H   0  0  0  0  0  0  0  0  0  0  0  0
   14.6117   40.2624   12.4442 H   0  0  0  0  0  0  0  0  0  0  0  0
    8.5148   41.1137   10.8533 H   0  0  0  0  0  0  0  0  0  0  0  0
    9.4489   41.2750    9.2790 H   0  0  0  0  0  0  0  0  0  0  0  0
    8.2207   40.0059    7.7149 H   0  0  0  0  0  0  0  0  0  0  0  0
    7.3892   37.7828    6.9379 H   0  0  0  0  0  0  0  0  0  0  0  0
    7.4390   35.8129    8.4809 H   0  0  0  0  0  0  0  0  0  0  0  0
    7.9604   34.8393   10.6289 H   0  0  0  0  0  0  0  0  0  0  0  0
    8.8447   35.0516   12.9625 H   0  0  0  0  0  0  0  0  0  0  0  0
    9.6939   37.2626   13.7817 H   0  0  0  0  0  0  0  0  0  0  0  0
    9.6588   39.2588   12.2763 H   0  0  0  0  0  0  0  0  0  0  0  0
    8.7490   41.9932   12.7165 H   0  0  0  0  0  0  0  0  0  0  0  0
    9.4951   42.7529   14.9866 H   0  0  0  0  0  0  0  0  0  0  0  0
   13.4612   41.1819   14.2030 H   0  0  0  0  0  0  0  0  0  0  0  0
  1  2  1  0
  2  3  1  0
  3  4  1  0
  4  5  2  0
  4  6  1  0
  6  7  1  0
  6  8  1  0
  8  9  1  0
  9 10  2  0
 10 11  1  0
 11 12  2  0
 11 13  1  0
 10 14  1  0
 14 15  1  0
 15 16  1  0
 16 17  2  0
 17 18  1  0
 18 19  2  0
 19 20  1  0
 20 21  2  0
 21 22  1  0
 22 23  2  0
 23 24  1  0
 24 25  2  0
 14 26  1  0
 26 27  2  0
 27 28  1  0
 28 29  2  0
 29 30  1  0
 29 31  1  0
 31 32  2  0
 32  9  1  0
 25 16  1  0
 32 26  1  0
 25 20  1  0
  1 33  1  0
  1 34  1  0
  1 35  1  0
  2 36  1  0
  2 37  1  0
  7 38  1  0
  7 39  1  0
  7 40  1  0
  8 41  1  0
  8 42  1  0
 15 43  1  0
 15 44  1  0
 17 45  1  0
 18 46  1  0
 19 47  1  0
 21 48  1  0
 22 49  1  0
 23 50  1  0
 24 51  1  0
 27 52  1  0
 28 53  1  0
 31 54  1  0
M  CHG  1  13  -1
M  END
>  <meeko>  (68) 
{"free_energy": -5.35, "intermolecular_energy": -7.73, "internal_energy": -1.93, "cluster_size": 61, "cluster_id": 70, "rank_in_cluster": 24}

$$$$

     RDKit          3D

 54 57  0  0  0  0  0  0  0  0999 V2000
    9.8540   43.7410   14.5360 C   0  0  0  0  0  0  0  0  0  0  0  0
    8.7300   43.0710   13.7410 C   0  0  0  0  0  0  0  0  0  0  0  0
    9.1800   42.8160   12.4200 O   0  0  0  0  0  0  0  0  0  0  0  0
    8.8490   41.6610   11.8040 C   0  0  0  0  0  0  0  0  0  0  0  0
    7.7230   41.4250   11.3650 O   0  0  0  0  0  0  0  0  0  0  0  0
    9.9560   40.8040   11.7400 N   0  0  0  0  0  0  0  0  0  0  0  0
   10.3410   40.1180   10.5010 C   0  0  0  0  0  0  0  0  0  0  0  0
   10.7740   40.5260   12.9280 C   0  0  0  0  0  0  0  0  0  0  0  0
   10.1480   39.4810   13.8220 C   0  0  0  0  0  0  0  0  0  0  0  0
    9.9200   39.5310   15.1860 C   0  0  0  0  0  0  0  0  0  0  0  0
   10.1900   40.6360   16.1580 C   0  0  0  0  0  0  0  0  0  0  0  0
    9.2500   41.3910   16.4860 O   0  0  0  0  0  0  0  0  0  0  0  0
   11.3400   40.8120   16.6180 O   0  0  0  0  0  1  0  0  0  0  0  0
    9.3710   38.2990   15.6000 N   0  0  0  0  0  0  0  0  0  0  0  0
    8.9600   37.8930   16.9470 C   0  0  0  0  0  0  0  0  0  0  0  0
   10.0950   37.8310   17.9770 C   0  0  0  0  0  0  0  0  0  0  0  0
   10.0210   38.5690   19.1850 C   0  0  0  0  0  0  0  0  0  0  0  0
   11.0590   38.5150   20.1320 C   0  0  0  0  0  0  0  0  0  0  0  0
   12.1920   37.7240   19.8870 C   0  0  0  0  0  0  0  0  0  0  0  0
   12.2910   36.9830   18.6940 C   0  0  0  0  0  0  0  0  0  0  0  0
   13.4360   36.1930   18.4650 C   0  0  0  0  0  0  0  0  0  0  0  0
   13.5560   35.4450   17.2800 C   0  0  0  0  0  0  0  0  0  0  0  0
   12.5280   35.4840   16.3210 C   0  0  0  0  0  0  0  0  0  0  0  0
   11.3820   36.2710   16.5440 C   0  0  0  0  0  0  0  0  0  0  0  0
   11.2450   37.0310   17.7320 C   0  0  0  0  0  0  0  0  0  0  0  0
    9.2490   37.4590   14.5010 C   0  0  0  0  0  0  0  0  0  0  0  0
    8.7790   36.1350   14.3770 C   0  0  0  0  0  0  0  0  0  0  0  0
    8.7570   35.5150   13.1170 C   0  0  0  0  0  0  0  0  0  0  0  0
    9.2020   36.2200   11.9850 C   0  0  0  0  0  0  0  0  0  0  0  0
    9.1790   35.6290   10.7670 F   0  0  0  0  0  0  0  0  0  0  0  0
    9.6730   37.5400   12.1170 C   0  0  0  0  0  0  0  0  0  0  0  0
    9.7150   38.1900   13.3750 C   0  0  0  0  0  0  0  0  0  0  0  0
    9.6606   43.6257   15.6127 H   0  0  0  0  0  0  0  0  0  0  0  0
   10.8143   43.2678   14.2832 H   0  0  0  0  0  0  0  0  0  0  0  0
    9.8946   44.8108   14.2832 H   0  0  0  0  0  0  0  0  0  0  0  0
    8.4523   42.1227   14.2244 H   0  0  0  0  0  0  0  0  0  0  0  0
    7.8530   43.7343   13.7108 H   0  0  0  0  0  0  0  0  0  0  0  0
   10.8657   39.1831   10.7473 H   0  0  0  0  0  0  0  0  0  0  0  0
    9.4397   39.8888    9.9135 H   0  0  0  0  0  0  0  0  0  0  0  0
   11.0062   40.7679    9.9135 H   0  0  0  0  0  0  0  0  0  0  0  0
   11.7614   40.1673   12.6019 H   0  0  0  0  0  0  0  0  0  0  0  0
   10.8567   41.4583   13.5060 H   0  0  0  0  0  0  0  0  0  0  0  0
    8.2105   38.6131   17.3072 H   0  0  0  0  0  0  0  0  0  0  0  0
    8.5703   36.8685   16.8551 H   0  0  0  0  0  0  0  0  0  0  0  0
    9.1378   39.1936   19.3847 H   0  0  0  0  0  0  0  0  0  0  0  0
   10.9829   39.0928   21.0649 H   0  0  0  0  0  0  0  0  0  0  0  0
   13.0039   37.6829   20.6281 H   0  0  0  0  0  0  0  0  0  0  0  0
   14.2389   36.1615   19.2163 H   0  0  0  0  0  0  0  0  0  0  0  0
   14.4516   34.8311   17.1037 H   0  0  0  0  0  0  0  0  0  0  0  0
   12.6195   34.8982   15.3945 H   0  0  0  0  0  0  0  0  0  0  0  0
   10.5840   36.2961   15.7874 H   0  0  0  0  0  0  0  0  0  0  0  0
    8.4302   35.5888   15.2658 H   0  0  0  0  0  0  0  0  0  0  0  0
    8.3930   34.4819   13.0162 H   0  0  0  0  0  0  0  0  0  0  0  0
   10.0166   38.0795   11.2221 H   0  0  0  0  0  0  0  0  0  0  0  0
  1  2  1  0
  2  3  1  0
  3  4  1  0
  4  5  2  0
  4  6  1  0
  6  7  1  0
  6  8  1  0
  8  9  1  0
  9 10  2  0
 10 11  1  0
 11 12  2  0
 11 13  1  0
 10 14  1  0
 14 15  1  0
 15 16  1  0
 16 17  2  0
 17 18  1  0
 18 19  2  0
 19 20  1  0
 20 21  2  0
 21 22  1  0
 22 23  2  0
 23 24  1  0
 24 25  2  0
 14 26  1  0
 26 27  2  0
 27 28  1  0
 28 29  2  0
 29 30  1  0
 29 31  1  0
 31 32  2  0
 32  9  1  0
 25 16  1  0
 32 26  1  0
 25 20  1  0
  1 33  1  0
  1 34  1  0
  1 35  1  0
  2 36  1  0
  2 37  1  0
  7 38  1  0
  7 39  1  0
  7 40  1  0
  8 41  1  0
  8 42  1  0
 15 43  1  0
 15 44  1  0
 17 45  1  0
 18 46  1  0
 19 47  1  0
 21 48  1  0
 22 49  1  0
 23 50  1  0
 24 51  1  0
 27 52  1  0
 28 53  1  0
 31 54  1  0
M  CHG  1  13  -1
M  END
>  <meeko>  (69) 
{"free_energy": -3.93, "intermolecular_energy": -6.32, "internal_energy": -2.3, "cluster_size": 3, "cluster_id": 249, "rank_in_cluster": 3}

$$$$

     RDKit          3D

 54 57  0  0  0  0  0  0  0  0999 V2000
    7.0570   35.1060    6.4630 C   0  0  0  0  0  0  0  0  0  0  0  0
    6.9880   36.4440    7.2030 C   0  0  0  0  0  0  0  0  0  0  0  0
    8.1810   36.6270    7.9480 O   0  0  0  0  0  0  0  0  0  0  0  0
    8.4060   35.8890    9.0560 C   0  0  0  0  0  0  0  0  0  0  0  0
    7.9250   34.7690    9.2340 O   0  0  0  0  0  0  0  0  0  0  0  0
    9.2510   36.5740    9.9400 N   0  0  0  0  0  0  0  0  0  0  0  0
   10.7090   36.4150    9.9070 C   0  0  0  0  0  0  0  0  0  0  0  0
    8.7100   37.4710   10.9700 C   0  0  0  0  0  0  0  0  0  0  0  0
    9.6590   37.6460   12.1320 C   0  0  0  0  0  0  0  0  0  0  0  0
    9.5670   37.1280   13.4120 C   0  0  0  0  0  0  0  0  0  0  0  0
    8.5310   36.2250   14.0030 C   0  0  0  0  0  0  0  0  0  0  0  0
    8.4650   35.0440   13.6020 O   0  0  0  0  0  0  0  0  0  0  0  0
    7.7350   36.6510   14.8680 O   0  0  0  0  0  1  0  0  0  0  0  0
   10.6510   37.6110   14.1760 N   0  0  0  0  0  0  0  0  0  0  0  0
   10.9750   37.3270   15.5770 C   0  0  0  0  0  0  0  0  0  0  0  0
   10.4240   35.9980   16.1100 C   0  0  0  0  0  0  0  0  0  0  0  0
   11.0000   34.7640   15.7170 C   0  0  0  0  0  0  0  0  0  0  0  0
   10.4990   33.5440   16.2030 C   0  0  0  0  0  0  0  0  0  0  0  0
    9.4100   33.5350   17.0890 C   0  0  0  0  0  0  0  0  0  0  0  0
    8.8190   34.7470   17.4920 C   0  0  0  0  0  0  0  0  0  0  0  0
    7.7260   34.7190   18.3830 C   0  0  0  0  0  0  0  0  0  0  0  0
    7.1200   35.9180   18.7990 C   0  0  0  0  0  0  0  0  0  0  0  0
    7.6070   37.1490   18.3250 C   0  0  0  0  0  0  0  0  0  0  0  0
    8.6980   37.1840   17.4350 C   0  0  0  0  0  0  0  0  0  0  0  0
    9.3210   35.9860   17.0060 C   0  0  0  0  0  0  0  0  0  0  0  0
   11.4360   38.4390   13.3840 C   0  0  0  0  0  0  0  0  0  0  0  0
   12.6080   39.1720   13.6650 C   0  0  0  0  0  0  0  0  0  0  0  0
   13.2150   39.9370   12.6550 C   0  0  0  0  0  0  0  0  0  0  0  0
   12.6500   39.9640   11.3680 C   0  0  0  0  0  0  0  0  0  0  0  0
   13.2320   40.6960   10.3880 F   0  0  0  0  0  0  0  0  0  0  0  0
   11.4780   39.2320   11.0960 C   0  0  0  0  0  0  0  0  0  0  0  0
   10.8400   38.4580   12.0950 C   0  0  0  0  0  0  0  0  0  0  0  0
    7.0994   34.2847    7.1935 H   0  0  0  0  0  0  0  0  0  0  0  0
    6.1637   34.9896    5.8318 H   0  0  0  0  0  0  0  0  0  0  0  0
    7.9576   35.0821    5.8318 H   0  0  0  0  0  0  0  0  0  0  0  0
    6.8796   37.2617    6.4753 H   0  0  0  0  0  0  0  0  0  0  0  0
    6.1235   36.4460    7.8832 H   0  0  0  0  0  0  0  0  0  0  0  0
   11.0966   36.3727   10.9356 H   0  0  0  0  0  0  0  0  0  0  0  0
   10.9645   35.4837    9.3803 H   0  0  0  0  0  0  0  0  0  0  0  0
   11.1592   37.2694    9.3803 H   0  0  0  0  0  0  0  0  0  0  0  0
    8.5192   38.4553   10.5175 H   0  0  0  0  0  0  0  0  0  0  0  0
    7.7837   37.0208   11.3562 H   0  0  0  0  0  0  0  0  0  0  0  0
   12.0702   37.3079   15.6775 H   0  0  0  0  0  0  0  0  0  0  0  0
   10.4974   38.1199   16.1713 H   0  0  0  0  0  0  0  0  0  0  0  0
   11.8519   34.7611   15.0212 H   0  0  0  0  0  0  0  0  0  0  0  0
   10.9603   32.5960   15.8891 H   0  0  0  0  0  0  0  0  0  0  0  0
    9.0183   32.5797   17.4686 H   0  0  0  0  0  0  0  0  0  0  0  0
    7.3461   33.7556   18.7539 H   0  0  0  0  0  0  0  0  0  0  0  0
    6.2672   35.8929   19.4934 H   0  0  0  0  0  0  0  0  0  0  0  0
    7.1344   38.0875   18.6503 H   0  0  0  0  0  0  0  0  0  0  0  0
    9.0705   38.1521   17.0689 H   0  0  0  0  0  0  0  0  0  0  0  0
   13.0461   39.1447   14.6736 H   0  0  0  0  0  0  0  0  0  0  0  0
   14.1278   40.5120   12.8701 H   0  0  0  0  0  0  0  0  0  0  0  0
   11.0484   39.2624   10.0838 H   0  0  0  0  0  0  0  0  0  0  0  0
  1  2  1  0
  2  3  1  0
  3  4  1  0
  4  5  2  0
  4  6  1  0
  6  7  1  0
  6  8  1  0
  8  9  1  0
  9 10  2  0
 10 11  1  0
 11 12  2  0
 11 13  1  0
 10 14  1  0
 14 15  1  0
 15 16  1  0
 16 17  2  0
 17 18  1  0
 18 19  2  0
 19 20  1  0
 20 21  2  0
 21 22  1  0
 22 23  2  0
 23 24  1  0
 24 25  2  0
 14 26  1  0
 26 27  2  0
 27 28  1  0
 28 29  2  0
 29 30  1  0
 29 31  1  0
 31 32  2  0
 32  9  1  0
 25 16  1  0
 32 26  1  0
 25 20  1  0
  1 33  1  0
  1 34  1  0
  1 35  1  0
  2 36  1  0
  2 37  1  0
  7 38  1  0
  7 39  1  0
  7 40  1  0
  8 41  1  0
  8 42  1  0
 15 43  1  0
 15 44  1  0
 17 45  1  0
 18 46  1  0
 19 47  1  0
 21 48  1  0
 22 49  1  0
 23 50  1  0
 24 51  1  0
 27 52  1  0
 28 53  1  0
 31 54  1  0
M  CHG  1  13  -1
M  END
>  <meeko>  (70) 
{"free_energy": -7.04, "intermolecular_energy": -9.43, "internal_energy": -1.09, "cluster_size": 109, "cluster_id": 6, "rank_in_cluster": 11}

$$$$

     RDKit          3D

 54 57  0  0  0  0  0  0  0  0999 V2000
   11.2030   33.4730   15.6850 C   0  0  0  0  0  0  0  0  0  0  0  0
    9.8520   34.1430   15.4220 C   0  0  0  0  0  0  0  0  0  0  0  0
    9.8430   34.6790   14.1090 O   0  0  0  0  0  0  0  0  0  0  0  0
    8.8430   35.4970   13.7190 C   0  0  0  0  0  0  0  0  0  0  0  0
    8.0840   36.0640   14.5080 O   0  0  0  0  0  0  0  0  0  0  0  0
    8.8090   35.6020   12.3230 N   0  0  0  0  0  0  0  0  0  0  0  0
    7.6820   35.1000   11.5290 C   0  0  0  0  0  0  0  0  0  0  0  0
    9.9250   36.2000   11.5770 C   0  0  0  0  0  0  0  0  0  0  0  0
    9.5220   37.4680   10.8630 C   0  0  0  0  0  0  0  0  0  0  0  0
    9.7020   38.7810   11.2610 C   0  0  0  0  0  0  0  0  0  0  0  0
   10.3730   39.3240   12.4830 C   0  0  0  0  0  0  0  0  0  0  0  0
    9.6740   39.5880   13.4850 O   0  0  0  0  0  0  0  0  0  0  0  0
   11.6070   39.5280   12.4950 O   0  0  0  0  0  1  0  0  0  0  0  0
    9.1060   39.6320   10.3050 N   0  0  0  0  0  0  0  0  0  0  0  0
    9.0540   41.0970   10.2960 C   0  0  0  0  0  0  0  0  0  0  0  0
   10.4220   41.7910   10.3160 C   0  0  0  0  0  0  0  0  0  0  0  0
   11.2750   41.7460    9.1840 C   0  0  0  0  0  0  0  0  0  0  0  0
   12.5290   42.3810    9.1980 C   0  0  0  0  0  0  0  0  0  0  0  0
   12.9550   43.0710   10.3440 C   0  0  0  0  0  0  0  0  0  0  0  0
   12.1270   43.1280   11.4810 C   0  0  0  0  0  0  0  0  0  0  0  0
   12.5710   43.8260   12.6230 C   0  0  0  0  0  0  0  0  0  0  0  0
   11.7610   43.8960   13.7700 C   0  0  0  0  0  0  0  0  0  0  0  0
   10.5020   43.2680   13.7770 C   0  0  0  0  0  0  0  0  0  0  0  0
   10.0530   42.5700   12.6390 C   0  0  0  0  0  0  0  0  0  0  0  0
   10.8570   42.4900   11.4750 C   0  0  0  0  0  0  0  0  0  0  0  0
    8.5440   38.8620    9.2950 C   0  0  0  0  0  0  0  0  0  0  0  0
    7.8300   39.2150    8.1320 C   0  0  0  0  0  0  0  0  0  0  0  0
    7.3720   38.2140    7.2590 C   0  0  0  0  0  0  0  0  0  0  0  0
    7.6310   36.8630    7.5520 C   0  0  0  0  0  0  0  0  0  0  0  0
    7.1960   35.8930    6.7130 F   0  0  0  0  0  0  0  0  0  0  0  0
    8.3420   36.5180    8.7180 C   0  0  0  0  0  0  0  0  0  0  0  0
    8.8100   37.5050    9.6190 C   0  0  0  0  0  0  0  0  0  0  0  0
   11.3670   33.3917   16.7697 H   0  0  0  0  0  0  0  0  0  0  0  0
   11.2074   32.4683   15.2372 H   0  0  0  0  0  0  0  0  0  0  0  0
   12.0055   34.0776   15.2372 H   0  0  0  0  0  0  0  0  0  0  0  0
    9.0475   33.3994   15.5210 H   0  0  0  0  0  0  0  0  0  0  0  0
    9.6929   34.9510   16.1512 H   0  0  0  0  0  0  0  0  0  0  0  0
    6.8877   34.7462   12.2027 H   0  0  0  0  0  0  0  0  0  0  0  0
    7.2912   35.9092   10.8945 H   0  0  0  0  0  0  0  0  0  0  0  0
    8.0221   34.2683   10.8945 H   0  0  0  0  0  0  0  0  0  0  0  0
   10.7369   36.4334   12.2815 H   0  0  0  0  0  0  0  0  0  0  0  0
   10.2494   35.4740   10.8169 H   0  0  0  0  0  0  0  0  0  0  0  0
    8.5227   41.4147    9.3867 H   0  0  0  0  0  0  0  0  0  0  0  0
    8.5434   41.3937   11.2240 H   0  0  0  0  0  0  0  0  0  0  0  0
   10.9507   41.2064    8.2820 H   0  0  0  0  0  0  0  0  0  0  0  0
   13.1771   42.3372    8.3103 H   0  0  0  0  0  0  0  0  0  0  0  0
   13.9365   43.5675   10.3535 H   0  0  0  0  0  0  0  0  0  0  0  0
   13.5550   44.3177   12.6164 H   0  0  0  0  0  0  0  0  0  0  0  0
   12.1107   44.4403   14.6596 H   0  0  0  0  0  0  0  0  0  0  0  0
    9.8668   43.3223   14.6734 H   0  0  0  0  0  0  0  0  0  0  0  0
    9.0675   42.0817   12.6541 H   0  0  0  0  0  0  0  0  0  0  0  0
    7.6315   40.2735    7.9081 H   0  0  0  0  0  0  0  0  0  0  0  0
    6.8137   38.4855    6.3509 H   0  0  0  0  0  0  0  0  0  0  0  0
    8.5382   35.4573    8.9336 H   0  0  0  0  0  0  0  0  0  0  0  0
  1  2  1  0
  2  3  1  0
  3  4  1  0
  4  5  2  0
  4  6  1  0
  6  7  1  0
  6  8  1  0
  8  9  1  0
  9 10  2  0
 10 11  1  0
 11 12  2  0
 11 13  1  0
 10 14  1  0
 14 15  1  0
 15 16  1  0
 16 17  2  0
 17 18  1  0
 18 19  2  0
 19 20  1  0
 20 21  2  0
 21 22  1  0
 22 23  2  0
 23 24  1  0
 24 25  2  0
 14 26  1  0
 26 27  2  0
 27 28  1  0
 28 29  2  0
 29 30  1  0
 29 31  1  0
 31 32  2  0
 32  9  1  0
 25 16  1  0
 32 26  1  0
 25 20  1  0
  1 33  1  0
  1 34  1  0
  1 35  1  0
  2 36  1  0
  2 37  1  0
  7 38  1  0
  7 39  1  0
  7 40  1  0
  8 41  1  0
  8 42  1  0
 15 43  1  0
 15 44  1  0
 17 45  1  0
 18 46  1  0
 19 47  1  0
 21 48  1  0
 22 49  1  0
 23 50  1  0
 24 51  1  0
 27 52  1  0
 28 53  1  0
 31 54  1  0
M  CHG  1  13  -1
M  END
>  <meeko>  (71) 
{"free_energy": -6.0, "intermolecular_energy": -8.38, "internal_energy": -1.79, "cluster_size": 318, "cluster_id": 5, "rank_in_cluster": 147}

$$$$

     RDKit          3D

 54 57  0  0  0  0  0  0  0  0999 V2000
    8.8250   38.4700   18.9490 C   0  0  0  0  0  0  0  0  0  0  0  0
    8.8060   36.9400   18.9070 C   0  0  0  0  0  0  0  0  0  0  0  0
    8.1540   36.5130   17.7220 O   0  0  0  0  0  0  0  0  0  0  0  0
    8.8580   35.9060   16.7430 C   0  0  0  0  0  0  0  0  0  0  0  0
    8.5400   34.8230   16.2510 O   0  0  0  0  0  0  0  0  0  0  0  0
    9.9680   36.6820   16.3830 N   0  0  0  0  0  0  0  0  0  0  0  0
   11.3420   36.2690   16.6930 C   0  0  0  0  0  0  0  0  0  0  0  0
    9.8070   37.9710   15.6980 C   0  0  0  0  0  0  0  0  0  0  0  0
   10.4990   37.9960   14.3560 C   0  0  0  0  0  0  0  0  0  0  0  0
   10.1000   37.4180   13.1640 C   0  0  0  0  0  0  0  0  0  0  0  0
    8.8630   36.6370   12.8500 C   0  0  0  0  0  0  0  0  0  0  0  0
    8.5770   35.6530   13.5650 O   0  0  0  0  0  0  0  0  0  0  0  0
    8.1410   36.9520   11.8790 O   0  0  0  0  0  1  0  0  0  0  0  0
   11.0960   37.6500   12.1910 N   0  0  0  0  0  0  0  0  0  0  0  0
   11.1080   37.2370   10.7850 C   0  0  0  0  0  0  0  0  0  0  0  0
    9.9790   37.8280    9.9290 C   0  0  0  0  0  0  0  0  0  0  0  0
    9.8470   39.2300    9.7700 C   0  0  0  0  0  0  0  0  0  0  0  0
    8.8150   39.7750    8.9870 C   0  0  0  0  0  0  0  0  0  0  0  0
    7.8940   38.9280    8.3510 C   0  0  0  0  0  0  0  0  0  0  0  0
    8.0030   37.5320    8.4950 C   0  0  0  0  0  0  0  0  0  0  0  0
    7.0690   36.6960    7.8480 C   0  0  0  0  0  0  0  0  0  0  0  0
    7.1590   35.2990    7.9780 C   0  0  0  0  0  0  0  0  0  0  0  0
    8.1850   34.7340    8.7560 C   0  0  0  0  0  0  0  0  0  0  0  0
    9.1200   35.5630    9.4050 C   0  0  0  0  0  0  0  0  0  0  0  0
    9.0450   36.9720    9.2840 C   0  0  0  0  0  0  0  0  0  0  0  0
   12.1330   38.3770   12.7610 C   0  0  0  0  0  0  0  0  0  0  0  0
   13.3520   38.8470   12.2320 C   0  0  0  0  0  0  0  0  0  0  0  0
   14.2320   39.5800   13.0450 C   0  0  0  0  0  0  0  0  0  0  0  0
   13.8900   39.8420   14.3830 C   0  0  0  0  0  0  0  0  0  0  0  0
   14.7330   40.5510   15.1710 F   0  0  0  0  0  0  0  0  0  0  0  0
   12.6720   39.3650   14.9060 C   0  0  0  0  0  0  0  0  0  0  0  0
   11.7680   38.6180   14.1120 C   0  0  0  0  0  0  0  0  0  0  0  0
    8.8292   38.8080   19.9958 H   0  0  0  0  0  0  0  0  0  0  0  0
    9.7278   38.8396   18.4407 H   0  0  0  0  0  0  0  0  0  0  0  0
    7.9317   38.8619   18.4407 H   0  0  0  0  0  0  0  0  0  0  0  0
    9.8379   36.5590   18.9166 H   0  0  0  0  0  0  0  0  0  0  0  0
    8.2671   36.5533   19.7846 H   0  0  0  0  0  0  0  0  0  0  0  0
   11.4755   36.2289   17.7841 H   0  0  0  0  0  0  0  0  0  0  0  0
   11.5316   35.2742   16.2636 H   0  0  0  0  0  0  0  0  0  0  0  0
   12.0486   36.9944   16.2636 H   0  0  0  0  0  0  0  0  0  0  0  0
    8.7340   38.1597   15.5465 H   0  0  0  0  0  0  0  0  0  0  0  0
   10.2658   38.7471   16.3282 H   0  0  0  0  0  0  0  0  0  0  0  0
   12.0679   37.5466   10.3459 H   0  0  0  0  0  0  0  0  0  0  0  0
   10.9598   36.1470   10.7819 H   0  0  0  0  0  0  0  0  0  0  0  0
   10.5628   39.9015   10.2667 H   0  0  0  0  0  0  0  0  0  0  0  0
    8.7290   40.8656    8.8725 H   0  0  0  0  0  0  0  0  0  0  0  0
    7.0860   39.3557    7.7393 H   0  0  0  0  0  0  0  0  0  0  0  0
    6.2670   37.1389    7.2393 H   0  0  0  0  0  0  0  0  0  0  0  0
    6.4289   34.6498    7.4725 H   0  0  0  0  0  0  0  0  0  0  0  0
    8.2574   33.6411    8.8579 H   0  0  0  0  0  0  0  0  0  0  0  0
    9.9177   35.1111   10.0128 H   0  0  0  0  0  0  0  0  0  0  0  0
   13.6138   38.6400   11.1838 H   0  0  0  0  0  0  0  0  0  0  0  0
   15.1849   39.9475   12.6364 H   0  0  0  0  0  0  0  0  0  0  0  0
   12.4173   39.5776   15.9548 H   0  0  0  0  0  0  0  0  0  0  0  0
  1  2  1  0
  2  3  1  0
  3  4  1  0
  4  5  2  0
  4  6  1  0
  6  7  1  0
  6  8  1  0
  8  9  1  0
  9 10  2  0
 10 11  1  0
 11 12  2  0
 11 13  1  0
 10 14  1  0
 14 15  1  0
 15 16  1  0
 16 17  2  0
 17 18  1  0
 18 19  2  0
 19 20  1  0
 20 21  2  0
 21 22  1  0
 22 23  2  0
 23 24  1  0
 24 25  2  0
 14 26  1  0
 26 27  2  0
 27 28  1  0
 28 29  2  0
 29 30  1  0
 29 31  1  0
 31 32  2  0
 32  9  1  0
 25 16  1  0
 32 26  1  0
 25 20  1  0
  1 33  1  0
  1 34  1  0
  1 35  1  0
  2 36  1  0
  2 37  1  0
  7 38  1  0
  7 39  1  0
  7 40  1  0
  8 41  1  0
  8 42  1  0
 15 43  1  0
 15 44  1  0
 17 45  1  0
 18 46  1  0
 19 47  1  0
 21 48  1  0
 22 49  1  0
 23 50  1  0
 24 51  1  0
 27 52  1  0
 28 53  1  0
 31 54  1  0
M  CHG  1  13  -1
M  END
>  <meeko>  (72) 
{"free_energy": -6.6, "intermolecular_energy": -8.99, "internal_energy": -1.66, "cluster_size": 263, "cluster_id": 1, "rank_in_cluster": 145}

$$$$

     RDKit          3D

 54 57  0  0  0  0  0  0  0  0999 V2000
    8.1630   41.3550   10.8170 C   0  0  0  0  0  0  0  0  0  0  0  0
    9.0150   40.8400    9.6540 C   0  0  0  0  0  0  0  0  0  0  0  0
   10.1380   40.1450   10.1700 O   0  0  0  0  0  0  0  0  0  0  0  0
   11.3290   40.7720   10.2820 C   0  0  0  0  0  0  0  0  0  0  0  0
   11.4600   41.8970   10.7690 O   0  0  0  0  0  0  0  0  0  0  0  0
   12.3580   39.9650    9.7810 N   0  0  0  0  0  0  0  0  0  0  0  0
   13.6430   40.5220    9.3440 C   0  0  0  0  0  0  0  0  0  0  0  0
   12.1880   38.5130    9.6400 C   0  0  0  0  0  0  0  0  0  0  0  0
   11.2400   37.9450   10.6710 C   0  0  0  0  0  0  0  0  0  0  0  0
   11.2780   38.0760   12.0480 C   0  0  0  0  0  0  0  0  0  0  0  0
   12.2370   38.8370   12.9080 C   0  0  0  0  0  0  0  0  0  0  0  0
   11.8110   39.8090   13.5670 O   0  0  0  0  0  0  0  0  0  0  0  0
   13.4460   38.5180   12.9500 O   0  0  0  0  0  1  0  0  0  0  0  0
   10.2250   37.3200   12.6050 N   0  0  0  0  0  0  0  0  0  0  0  0
    9.8640   37.1640   14.0170 C   0  0  0  0  0  0  0  0  0  0  0  0
   10.4740   35.9370   14.7070 C   0  0  0  0  0  0  0  0  0  0  0  0
    9.9130   34.6480   14.5260 C   0  0  0  0  0  0  0  0  0  0  0  0
   10.4700   33.5220   15.1570 C   0  0  0  0  0  0  0  0  0  0  0  0
   11.5970   33.6640   15.9820 C   0  0  0  0  0  0  0  0  0  0  0  0
   12.1710   34.9340   16.1790 C   0  0  0  0  0  0  0  0  0  0  0  0
   13.3030   35.0580   17.0120 C   0  0  0  0  0  0  0  0  0  0  0  0
   13.8930   36.3170   17.2230 C   0  0  0  0  0  0  0  0  0  0  0  0
   13.3520   37.4560   16.6000 C   0  0  0  0  0  0  0  0  0  0  0  0
   12.2220   37.3390   15.7690 C   0  0  0  0  0  0  0  0  0  0  0  0
   11.6150   36.0780   15.5440 C   0  0  0  0  0  0  0  0  0  0  0  0
    9.5120   36.7050   11.5840 C   0  0  0  0  0  0  0  0  0  0  0  0
    8.3960   35.8440   11.6030 C   0  0  0  0  0  0  0  0  0  0  0  0
    7.8590   35.3650   10.3960 C   0  0  0  0  0  0  0  0  0  0  0  0
    8.4400   35.7490    9.1750 C   0  0  0  0  0  0  0  0  0  0  0  0
    7.9250   35.2940    8.0080 F   0  0  0  0  0  0  0  0  0  0  0  0
    9.5570   36.6070    9.1640 C   0  0  0  0  0  0  0  0  0  0  0  0
   10.1240   37.1000   10.3640 C   0  0  0  0  0  0  0  0  0  0  0  0
    8.6332   41.0708   11.7700 H   0  0  0  0  0  0  0  0  0  0  0  0
    8.0864   42.4508   10.7583 H   0  0  0  0  0  0  0  0  0  0  0  0
    7.1572   40.9135   10.7583 H   0  0  0  0  0  0  0  0  0  0  0  0
    8.4152   40.1594    9.0319 H   0  0  0  0  0  0  0  0  0  0  0  0
    9.3550   41.6880    9.0414 H   0  0  0  0  0  0  0  0  0  0  0  0
   14.2476   40.7841   10.2248 H   0  0  0  0  0  0  0  0  0  0  0  0
   14.1796   39.7757    8.7398 H   0  0  0  0  0  0  0  0  0  0  0  0
   13.4652   41.4238    8.7398 H   0  0  0  0  0  0  0  0  0  0  0  0
   11.7900   38.2989    8.6371 H   0  0  0  0  0  0  0  0  0  0  0  0
   13.1708   38.0424    9.7903 H   0  0  0  0  0  0  0  0  0  0  0  0
   10.1994   38.0618   14.5568 H   0  0  0  0  0  0  0  0  0  0  0  0
    8.7734   37.0228   14.0432 H   0  0  0  0  0  0  0  0  0  0  0  0
    9.0291   34.5270   13.8825 H   0  0  0  0  0  0  0  0  0  0  0  0
   10.0224   32.5289   15.0042 H   0  0  0  0  0  0  0  0  0  0  0  0
   12.0318   32.7820   16.4749 H   0  0  0  0  0  0  0  0  0  0  0  0
   13.7257   34.1664   17.4983 H   0  0  0  0  0  0  0  0  0  0  0  0
   14.7751   36.4107   17.8735 H   0  0  0  0  0  0  0  0  0  0  0  0
   13.8134   38.4412   16.7627 H   0  0  0  0  0  0  0  0  0  0  0  0
   11.8051   38.2365   15.2886 H   0  0  0  0  0  0  0  0  0  0  0  0
    7.9459   35.5473   12.5619 H   0  0  0  0  0  0  0  0  0  0  0  0
    6.9883   34.6929   10.4066 H   0  0  0  0  0  0  0  0  0  0  0  0
    9.9991   36.9009    8.2006 H   0  0  0  0  0  0  0  0  0  0  0  0
  1  2  1  0
  2  3  1  0
  3  4  1  0
  4  5  2  0
  4  6  1  0
  6  7  1  0
  6  8  1  0
  8  9  1  0
  9 10  2  0
 10 11  1  0
 11 12  2  0
 11 13  1  0
 10 14  1  0
 14 15  1  0
 15 16  1  0
 16 17  2  0
 17 18  1  0
 18 19  2  0
 19 20  1  0
 20 21  2  0
 21 22  1  0
 22 23  2  0
 23 24  1  0
 24 25  2  0
 14 26  1  0
 26 27  2  0
 27 28  1  0
 28 29  2  0
 29 30  1  0
 29 31  1  0
 31 32  2  0
 32  9  1  0
 25 16  1  0
 32 26  1  0
 25 20  1  0
  1 33  1  0
  1 34  1  0
  1 35  1  0
  2 36  1  0
  2 37  1  0
  7 38  1  0
  7 39  1  0
  7 40  1  0
  8 41  1  0
  8 42  1  0
 15 43  1  0
 15 44  1  0
 17 45  1  0
 18 46  1  0
 19 47  1  0
 21 48  1  0
 22 49  1  0
 23 50  1  0
 24 51  1  0
 27 52  1  0
 28 53  1  0
 31 54  1  0
M  CHG  1  13  -1
M  END
>  <meeko>  (73) 
{"free_energy": -5.77, "intermolecular_energy": -8.15, "internal_energy": -1.8, "cluster_size": 130, "cluster_id": 32, "rank_in_cluster": 35}

$$$$

     RDKit          3D

 54 57  0  0  0  0  0  0  0  0999 V2000
   16.0160   33.9530    9.8430 C   0  0  0  0  0  0  0  0  0  0  0  0
   14.8060   34.8910    9.8510 C   0  0  0  0  0  0  0  0  0  0  0  0
   15.2070   36.1730    9.3940 O   0  0  0  0  0  0  0  0  0  0  0  0
   14.8270   37.2800   10.0680 C   0  0  0  0  0  0  0  0  0  0  0  0
   13.7630   37.8670    9.8610 O   0  0  0  0  0  0  0  0  0  0  0  0
   15.7980   37.6380   11.0120 N   0  0  0  0  0  0  0  0  0  0  0  0
   16.5100   36.6400   11.8160 C   0  0  0  0  0  0  0  0  0  0  0  0
   16.1320   39.0470   11.2640 C   0  0  0  0  0  0  0  0  0  0  0  0
   14.9090   39.8770   11.5790 C   0  0  0  0  0  0  0  0  0  0  0  0
   14.3060   40.8570   10.8100 C   0  0  0  0  0  0  0  0  0  0  0  0
   14.6610   41.3510    9.4440 C   0  0  0  0  0  0  0  0  0  0  0  0
   15.1340   40.5420    8.6170 O   0  0  0  0  0  0  0  0  0  0  0  0
   14.5060   42.5540    9.1420 O   0  0  0  0  0  1  0  0  0  0  0  0
   13.2280   41.4050   11.5390 N   0  0  0  0  0  0  0  0  0  0  0  0
   12.2960   42.4600   11.1290 C   0  0  0  0  0  0  0  0  0  0  0  0
   10.8120   42.0860   11.2380 C   0  0  0  0  0  0  0  0  0  0  0  0
    9.9120   42.8940   11.9780 C   0  0  0  0  0  0  0  0  0  0  0  0
    8.5520   42.5550   12.0810 C   0  0  0  0  0  0  0  0  0  0  0  0
    8.0660   41.4000   11.4470 C   0  0  0  0  0  0  0  0  0  0  0  0
    8.9400   40.5810   10.7080 C   0  0  0  0  0  0  0  0  0  0  0  0
    8.4340   39.4240   10.0780 C   0  0  0  0  0  0  0  0  0  0  0  0
    9.2890   38.5910    9.3350 C   0  0  0  0  0  0  0  0  0  0  0  0
   10.6530   38.9130    9.2200 C   0  0  0  0  0  0  0  0  0  0  0  0
   11.1640   40.0650    9.8470 C   0  0  0  0  0  0  0  0  0  0  0  0
   10.3170   40.9160   10.5990 C   0  0  0  0  0  0  0  0  0  0  0  0
   13.1430   40.7760   12.7740 C   0  0  0  0  0  0  0  0  0  0  0  0
   12.2670   40.9600   13.8630 C   0  0  0  0  0  0  0  0  0  0  0  0
   12.4020   40.1640   15.0130 C   0  0  0  0  0  0  0  0  0  0  0  0
   13.4110   39.1870   15.0690 C   0  0  0  0  0  0  0  0  0  0  0  0
   13.5440   38.4140   16.1730 F   0  0  0  0  0  0  0  0  0  0  0  0
   14.2850   39.0120   13.9790 C   0  0  0  0  0  0  0  0  0  0  0  0
   14.1780   39.8040   12.8090 C   0  0  0  0  0  0  0  0  0  0  0  0
   16.3101   33.7250   10.8782 H   0  0  0  0  0  0  0  0  0  0  0  0
   15.7534   33.0202    9.3225 H   0  0  0  0  0  0  0  0  0  0  0  0
   16.8539   34.4399    9.3225 H   0  0  0  0  0  0  0  0  0  0  0  0
   14.0259   34.4909    9.1867 H   0  0  0  0  0  0  0  0  0  0  0  0
   14.4069   34.9709   10.8729 H   0  0  0  0  0  0  0  0  0  0  0  0
   16.3578   36.8534   12.8843 H   0  0  0  0  0  0  0  0  0  0  0  0
   16.1221   35.6373   11.5835 H   0  0  0  0  0  0  0  0  0  0  0  0
   17.5844   36.6805   11.5835 H   0  0  0  0  0  0  0  0  0  0  0  0
   16.8249   39.0996   12.1167 H   0  0  0  0  0  0  0  0  0  0  0  0
   16.5895   39.4538   10.3501 H   0  0  0  0  0  0  0  0  0  0  0  0
   12.4746   43.3401   11.7642 H   0  0  0  0  0  0  0  0  0  0  0  0
   12.4904   42.6475   10.0627 H   0  0  0  0  0  0  0  0  0  0  0  0
   10.2839   43.7999   12.4791 H   0  0  0  0  0  0  0  0  0  0  0  0
    7.8681   43.1945   12.6583 H   0  0  0  0  0  0  0  0  0  0  0  0
    7.0014   41.1352   11.5280 H   0  0  0  0  0  0  0  0  0  0  0  0
    7.3669   39.1730   10.1685 H   0  0  0  0  0  0  0  0  0  0  0  0
    8.8919   37.6898    8.8450 H   0  0  0  0  0  0  0  0  0  0  0  0
   11.3227   38.2626    8.6383 H   0  0  0  0  0  0  0  0  0  0  0  0
   12.2328   40.3072    9.7520 H   0  0  0  0  0  0  0  0  0  0  0  0
   11.4788   41.7257   13.8126 H   0  0  0  0  0  0  0  0  0  0  0  0
   11.7212   40.3048   15.8655 H   0  0  0  0  0  0  0  0  0  0  0  0
   15.0690   38.2426   14.0371 H   0  0  0  0  0  0  0  0  0  0  0  0
  1  2  1  0
  2  3  1  0
  3  4  1  0
  4  5  2  0
  4  6  1  0
  6  7  1  0
  6  8  1  0
  8  9  1  0
  9 10  2  0
 10 11  1  0
 11 12  2  0
 11 13  1  0
 10 14  1  0
 14 15  1  0
 15 16  1  0
 16 17  2  0
 17 18  1  0
 18 19  2  0
 19 20  1  0
 20 21  2  0
 21 22  1  0
 22 23  2  0
 23 24  1  0
 24 25  2  0
 14 26  1  0
 26 27  2  0
 27 28  1  0
 28 29  2  0
 29 30  1  0
 29 31  1  0
 31 32  2  0
 32  9  1  0
 25 16  1  0
 32 26  1  0
 25 20  1  0
  1 33  1  0
  1 34  1  0
  1 35  1  0
  2 36  1  0
  2 37  1  0
  7 38  1  0
  7 39  1  0
  7 40  1  0
  8 41  1  0
  8 42  1  0
 15 43  1  0
 15 44  1  0
 17 45  1  0
 18 46  1  0
 19 47  1  0
 21 48  1  0
 22 49  1  0
 23 50  1  0
 24 51  1  0
 27 52  1  0
 28 53  1  0
 31 54  1  0
M  CHG  1  13  -1
M  END
>  <meeko>  (74) 
{"free_energy": -4.33, "intermolecular_energy": -6.71, "internal_energy": -2.14, "cluster_size": 3, "cluster_id": 251, "rank_in_cluster": 2}

$$$$

     RDKit          3D

 54 57  0  0  0  0  0  0  0  0999 V2000
   15.5530   36.0460   18.8810 C   0  0  0  0  0  0  0  0  0  0  0  0
   14.9200   35.3610   17.6670 C   0  0  0  0  0  0  0  0  0  0  0  0
   13.6640   35.9620   17.3950 O   0  0  0  0  0  0  0  0  0  0  0  0
   13.6020   37.1050   16.6780 C   0  0  0  0  0  0  0  0  0  0  0  0
   14.5000   37.4800   15.9220 O   0  0  0  0  0  0  0  0  0  0  0  0
   12.3920   37.7700   16.9160 N   0  0  0  0  0  0  0  0  0  0  0  0
   12.3430   39.1130   17.5030 C   0  0  0  0  0  0  0  0  0  0  0  0
   11.1020   37.1360   16.6140 C   0  0  0  0  0  0  0  0  0  0  0  0
   10.7910   37.1470   15.1360 C   0  0  0  0  0  0  0  0  0  0  0  0
    9.8020   36.4610   14.4530 C   0  0  0  0  0  0  0  0  0  0  0  0
    8.7410   35.5450   14.9760 C   0  0  0  0  0  0  0  0  0  0  0  0
    8.4020   35.6430   16.1750 O   0  0  0  0  0  0  0  0  0  0  0  0
    8.2180   34.6860   14.2330 O   0  0  0  0  0  1  0  0  0  0  0  0
    9.9330   36.7290   13.0730 N   0  0  0  0  0  0  0  0  0  0  0  0
    9.1080   36.2350   11.9680 C   0  0  0  0  0  0  0  0  0  0  0  0
    8.7410   37.2900   10.9150 C   0  0  0  0  0  0  0  0  0  0  0  0
    8.8070   38.6720   11.2200 C   0  0  0  0  0  0  0  0  0  0  0  0
    8.4710   39.6420   10.2590 C   0  0  0  0  0  0  0  0  0  0  0  0
    8.0610   39.2470    8.9760 C   0  0  0  0  0  0  0  0  0  0  0  0
    7.9850   37.8790    8.6500 C   0  0  0  0  0  0  0  0  0  0  0  0
    7.5710   37.5000    7.3560 C   0  0  0  0  0  0  0  0  0  0  0  0
    7.4880   36.1400    7.0080 C   0  0  0  0  0  0  0  0  0  0  0  0
    7.8200   35.1550    7.9550 C   0  0  0  0  0  0  0  0  0  0  0  0
    8.2340   35.5270    9.2480 C   0  0  0  0  0  0  0  0  0  0  0  0
    8.3240   36.8920    9.6160 C   0  0  0  0  0  0  0  0  0  0  0  0
   11.0070   37.5870   12.8740 C   0  0  0  0  0  0  0  0  0  0  0  0
   11.5610   38.1420   11.7020 C   0  0  0  0  0  0  0  0  0  0  0  0
   12.6660   39.0050   11.7900 C   0  0  0  0  0  0  0  0  0  0  0  0
   13.2110   39.3130   13.0480 C   0  0  0  0  0  0  0  0  0  0  0  0
   14.2730   40.1480   13.1400 F   0  0  0  0  0  0  0  0  0  0  0  0
   12.6540   38.7520   14.2140 C   0  0  0  0  0  0  0  0  0  0  0  0
   11.5450   37.8730   14.1570 C   0  0  0  0  0  0  0  0  0  0  0  0
   15.1465   35.6061   19.8036 H   0  0  0  0  0  0  0  0  0  0  0  0
   16.6433   35.9025   18.8558 H   0  0  0  0  0  0  0  0  0  0  0  0
   15.3241   37.1216   18.8558 H   0  0  0  0  0  0  0  0  0  0  0  0
   15.5796   35.4758   16.7942 H   0  0  0  0  0  0  0  0  0  0  0  0
   14.7797   34.2906   17.8779 H   0  0  0  0  0  0  0  0  0  0  0  0
   12.3459   39.0339   18.6002 H   0  0  0  0  0  0  0  0  0  0  0  0
   13.2207   39.6890   17.1746 H   0  0  0  0  0  0  0  0  0  0  0  0
   11.4256   39.6235   17.1746 H   0  0  0  0  0  0  0  0  0  0  0  0
   11.1303   36.0929   16.9620 H   0  0  0  0  0  0  0  0  0  0  0  0
   10.3163   37.7093   17.1279 H   0  0  0  0  0  0  0  0  0  0  0  0
    9.6590   35.4268   11.4647 H   0  0  0  0  0  0  0  0  0  0  0  0
    8.1598   35.9019   12.4152 H   0  0  0  0  0  0  0  0  0  0  0  0
    9.1258   38.9909   12.2233 H   0  0  0  0  0  0  0  0  0  0  0  0
    8.5295   40.7107   10.5128 H   0  0  0  0  0  0  0  0  0  0  0  0
    7.7989   40.0065    8.2247 H   0  0  0  0  0  0  0  0  0  0  0  0
    7.3120   38.2715    6.6159 H   0  0  0  0  0  0  0  0  0  0  0  0
    7.1644   35.8477    5.9981 H   0  0  0  0  0  0  0  0  0  0  0  0
    7.7560   34.0907    7.6847 H   0  0  0  0  0  0  0  0  0  0  0  0
    8.4907   34.7484    9.9814 H   0  0  0  0  0  0  0  0  0  0  0  0
   11.1285   37.8995   10.7201 H   0  0  0  0  0  0  0  0  0  0  0  0
   13.1028   39.4378   10.8779 H   0  0  0  0  0  0  0  0  0  0  0  0
   13.0908   39.0026   15.1920 H   0  0  0  0  0  0  0  0  0  0  0  0
  1  2  1  0
  2  3  1  0
  3  4  1  0
  4  5  2  0
  4  6  1  0
  6  7  1  0
  6  8  1  0
  8  9  1  0
  9 10  2  0
 10 11  1  0
 11 12  2  0
 11 13  1  0
 10 14  1  0
 14 15  1  0
 15 16  1  0
 16 17  2  0
 17 18  1  0
 18 19  2  0
 19 20  1  0
 20 21  2  0
 21 22  1  0
 22 23  2  0
 23 24  1  0
 24 25  2  0
 14 26  1  0
 26 27  2  0
 27 28  1  0
 28 29  2  0
 29 30  1  0
 29 31  1  0
 31 32  2  0
 32  9  1  0
 25 16  1  0
 32 26  1  0
 25 20  1  0
  1 33  1  0
  1 34  1  0
  1 35  1  0
  2 36  1  0
  2 37  1  0
  7 38  1  0
  7 39  1  0
  7 40  1  0
  8 41  1  0
  8 42  1  0
 15 43  1  0
 15 44  1  0
 17 45  1  0
 18 46  1  0
 19 47  1  0
 21 48  1  0
 22 49  1  0
 23 50  1  0
 24 51  1  0
 27 52  1  0
 28 53  1  0
 31 54  1  0
M  CHG  1  13  -1
M  END
>  <meeko>  (75) 
{"free_energy": -7.39, "intermolecular_energy": -9.78, "internal_energy": -1.02, "cluster_size": 283, "cluster_id": 7, "rank_in_cluster": 5}

$$$$

     RDKit          3D

 54 57  0  0  0  0  0  0  0  0999 V2000
    7.5370   45.2990   14.1040 C   0  0  0  0  0  0  0  0  0  0  0  0
    8.8360   45.7630   14.7670 C   0  0  0  0  0  0  0  0  0  0  0  0
    9.8790   44.8620   14.4330 O   0  0  0  0  0  0  0  0  0  0  0  0
   10.3450   44.8060   13.1670 C   0  0  0  0  0  0  0  0  0  0  0  0
   10.7130   45.7990   12.5360 O   0  0  0  0  0  0  0  0  0  0  0  0
   10.3510   43.4850   12.7030 N   0  0  0  0  0  0  0  0  0  0  0  0
   11.5490   42.8660   12.1250 C   0  0  0  0  0  0  0  0  0  0  0  0
    9.1380   42.6560   12.7470 C   0  0  0  0  0  0  0  0  0  0  0  0
    9.4530   41.1900   12.9300 C   0  0  0  0  0  0  0  0  0  0  0  0
    9.9750   40.5480   14.0390 C   0  0  0  0  0  0  0  0  0  0  0  0
   10.3430   41.1030   15.3780 C   0  0  0  0  0  0  0  0  0  0  0  0
    9.4400   41.5770   16.1010 O   0  0  0  0  0  0  0  0  0  0  0  0
   11.5340   41.1110   15.7580 O   0  0  0  0  0  1  0  0  0  0  0  0
   10.1600   39.1830   13.7280 N   0  0  0  0  0  0  0  0  0  0  0  0
   10.6760   38.1150   14.5890 C   0  0  0  0  0  0  0  0  0  0  0  0
    9.7140   37.6560   15.6930 C   0  0  0  0  0  0  0  0  0  0  0  0
    9.3150   38.5440   16.7230 C   0  0  0  0  0  0  0  0  0  0  0  0
    8.4350   38.1280   17.7370 C   0  0  0  0  0  0  0  0  0  0  0  0
    7.9390   36.8140   17.7410 C   0  0  0  0  0  0  0  0  0  0  0  0
    8.3220   35.9130   16.7290 C   0  0  0  0  0  0  0  0  0  0  0  0
    7.8140   34.5970   16.7490 C   0  0  0  0  0  0  0  0  0  0  0  0
    8.1830   33.6800   15.7490 C   0  0  0  0  0  0  0  0  0  0  0  0
    9.0620   34.0770   14.7260 C   0  0  0  0  0  0  0  0  0  0  0  0
    9.5730   35.3890   14.7010 C   0  0  0  0  0  0  0  0  0  0  0  0
    9.2110   36.3260   15.7000 C   0  0  0  0  0  0  0  0  0  0  0  0
    9.7560   38.9530   12.4190 C   0  0  0  0  0  0  0  0  0  0  0  0
    9.7480   37.7850   11.6300 C   0  0  0  0  0  0  0  0  0  0  0  0
    9.2670   37.8340   10.3110 C   0  0  0  0  0  0  0  0  0  0  0  0
    8.7950   39.0490    9.7860 C   0  0  0  0  0  0  0  0  0  0  0  0
    8.3260   39.1020    8.5160 F   0  0  0  0  0  0  0  0  0  0  0  0
    8.8090   40.2130   10.5790 C   0  0  0  0  0  0  0  0  0  0  0  0
    9.2940   40.1960   11.9100 C   0  0  0  0  0  0  0  0  0  0  0  0
    6.8027   45.0367   14.8799 H   0  0  0  0  0  0  0  0  0  0  0  0
    7.1352   46.1092   13.4778 H   0  0  0  0  0  0  0  0  0  0  0  0
    7.7394   44.4176   13.4778 H   0  0  0  0  0  0  0  0  0  0  0  0
    9.0920   46.7710   14.4087 H   0  0  0  0  0  0  0  0  0  0  0  0
    8.7048   45.7873   15.8589 H   0  0  0  0  0  0  0  0  0  0  0  0
   12.2114   42.5237   12.9338 H   0  0  0  0  0  0  0  0  0  0  0  0
   11.2546   42.0071   11.5039 H   0  0  0  0  0  0  0  0  0  0  0  0
   12.0792   43.6030   11.5039 H   0  0  0  0  0  0  0  0  0  0  0  0
    8.5108   42.9907   13.5864 H   0  0  0  0  0  0  0  0  0  0  0  0
    8.6162   42.7710   11.7855 H   0  0  0  0  0  0  0  0  0  0  0  0
   10.9083   37.2467   13.9549 H   0  0  0  0  0  0  0  0  0  0  0  0
   11.5582   38.5285   15.0997 H   0  0  0  0  0  0  0  0  0  0  0  0
    9.6999   39.5745   16.7290 H   0  0  0  0  0  0  0  0  0  0  0  0
    8.1348   38.8316   18.5275 H   0  0  0  0  0  0  0  0  0  0  0  0
    7.2510   36.4886   18.5352 H   0  0  0  0  0  0  0  0  0  0  0  0
    7.1266   34.2871   17.5499 H   0  0  0  0  0  0  0  0  0  0  0  0
    7.7850   32.6547   15.7670 H   0  0  0  0  0  0  0  0  0  0  0  0
    9.3514   33.3607   13.9429 H   0  0  0  0  0  0  0  0  0  0  0  0
   10.2608   35.6896   13.8969 H   0  0  0  0  0  0  0  0  0  0  0  0
   10.1179   36.8365   12.0465 H   0  0  0  0  0  0  0  0  0  0  0  0
    9.2599   36.9249    9.6917 H   0  0  0  0  0  0  0  0  0  0  0  0
    8.4349   41.1566   10.1552 H   0  0  0  0  0  0  0  0  0  0  0  0
  1  2  1  0
  2  3  1  0
  3  4  1  0
  4  5  2  0
  4  6  1  0
  6  7  1  0
  6  8  1  0
  8  9  1  0
  9 10  2  0
 10 11  1  0
 11 12  2  0
 11 13  1  0
 10 14  1  0
 14 15  1  0
 15 16  1  0
 16 17  2  0
 17 18  1  0
 18 19  2  0
 19 20  1  0
 20 21  2  0
 21 22  1  0
 22 23  2  0
 23 24  1  0
 24 25  2  0
 14 26  1  0
 26 27  2  0
 27 28  1  0
 28 29  2  0
 29 30  1  0
 29 31  1  0
 31 32  2  0
 32  9  1  0
 25 16  1  0
 32 26  1  0
 25 20  1  0
  1 33  1  0
  1 34  1  0
  1 35  1  0
  2 36  1  0
  2 37  1  0
  7 38  1  0
  7 39  1  0
  7 40  1  0
  8 41  1  0
  8 42  1  0
 15 43  1  0
 15 44  1  0
 17 45  1  0
 18 46  1  0
 19 47  1  0
 21 48  1  0
 22 49  1  0
 23 50  1  0
 24 51  1  0
 27 52  1  0
 28 53  1  0
 31 54  1  0
M  CHG  1  13  -1
M  END
>  <meeko>  (76) 
{"free_energy": -5.04, "intermolecular_energy": -7.42, "internal_energy": -1.75, "cluster_size": 12, "cluster_id": 105, "rank_in_cluster": 6}

$$$$

     RDKit          3D

 54 57  0  0  0  0  0  0  0  0999 V2000
    6.8350   35.0960    8.0900 C   0  0  0  0  0  0  0  0  0  0  0  0
    7.3270   36.1010    7.0450 C   0  0  0  0  0  0  0  0  0  0  0  0
    7.5700   37.3480    7.6740 O   0  0  0  0  0  0  0  0  0  0  0  0
    7.8530   37.3970    8.9940 C   0  0  0  0  0  0  0  0  0  0  0  0
    7.0250   37.7040    9.8530 O   0  0  0  0  0  0  0  0  0  0  0  0
    9.1900   37.0470    9.2230 N   0  0  0  0  0  0  0  0  0  0  0  0
    9.6000   35.6630    9.4840 C   0  0  0  0  0  0  0  0  0  0  0  0
   10.2510   38.0630    9.2400 C   0  0  0  0  0  0  0  0  0  0  0  0
   10.4490   38.6580   10.6140 C   0  0  0  0  0  0  0  0  0  0  0  0
   11.1300   39.8100   10.9690 C   0  0  0  0  0  0  0  0  0  0  0  0
   11.8300   40.8090   10.1040 C   0  0  0  0  0  0  0  0  0  0  0  0
   11.7550   42.0200   10.4030 O   0  0  0  0  0  0  0  0  0  0  0  0
   12.4620   40.4410    9.0900 O   0  0  0  0  0  1  0  0  0  0  0  0
   11.1060   39.9360   12.3750 N   0  0  0  0  0  0  0  0  0  0  0  0
   11.6850   40.9970   13.2030 C   0  0  0  0  0  0  0  0  0  0  0  0
   10.6620   41.8660   13.9470 C   0  0  0  0  0  0  0  0  0  0  0  0
   10.9170   42.3210   15.2650 C   0  0  0  0  0  0  0  0  0  0  0  0
    9.9830   43.1170   15.9490 C   0  0  0  0  0  0  0  0  0  0  0  0
    8.7740   43.4710   15.3290 C   0  0  0  0  0  0  0  0  0  0  0  0
    8.4960   43.0300   14.0220 C   0  0  0  0  0  0  0  0  0  0  0  0
    7.2770   43.3950   13.4140 C   0  0  0  0  0  0  0  0  0  0  0  0
    6.9780   42.9660   12.1090 C   0  0  0  0  0  0  0  0  0  0  0  0
    7.9010   42.1700   11.4070 C   0  0  0  0  0  0  0  0  0  0  0  0
    9.1200   41.8010   12.0080 C   0  0  0  0  0  0  0  0  0  0  0  0
    9.4370   42.2250   13.3220 C   0  0  0  0  0  0  0  0  0  0  0  0
   10.4110   38.8640   12.9190 C   0  0  0  0  0  0  0  0  0  0  0  0
   10.1170   38.5150   14.2530 C   0  0  0  0  0  0  0  0  0  0  0  0
    9.3720   37.3550   14.5260 C   0  0  0  0  0  0  0  0  0  0  0  0
    8.9220   36.5510   13.4650 C   0  0  0  0  0  0  0  0  0  0  0  0
    8.2000   35.4340   13.7220 F   0  0  0  0  0  0  0  0  0  0  0  0
    9.2220   36.9050   12.1360 C   0  0  0  0  0  0  0  0  0  0  0  0
    9.9770   38.0630   11.8300 C   0  0  0  0  0  0  0  0  0  0  0  0
    7.0284   35.4911    9.0982 H   0  0  0  0  0  0  0  0  0  0  0  0
    5.7549   34.9323    7.9613 H   0  0  0  0  0  0  0  0  0  0  0  0
    7.3682   34.1425    7.9613 H   0  0  0  0  0  0  0  0  0  0  0  0
    8.2575   35.7316    6.5891 H   0  0  0  0  0  0  0  0  0  0  0  0
    6.5629   36.2246    6.2634 H   0  0  0  0  0  0  0  0  0  0  0  0
    9.6501   35.4940   10.5698 H   0  0  0  0  0  0  0  0  0  0  0  0
    8.8675   34.9735    9.0390 H   0  0  0  0  0  0  0  0  0  0  0  0
   10.5898   35.4837    9.0390 H   0  0  0  0  0  0  0  0  0  0  0  0
   11.1933   37.5966    8.9168 H   0  0  0  0  0  0  0  0  0  0  0  0
    9.9523   38.8747    8.5603 H   0  0  0  0  0  0  0  0  0  0  0  0
   12.3422   40.5276   13.9498 H   0  0  0  0  0  0  0  0  0  0  0  0
   12.2188   41.6691   12.5150 H   0  0  0  0  0  0  0  0  0  0  0  0
   11.8604   42.0467   15.7597 H   0  0  0  0  0  0  0  0  0  0  0  0
   10.1990   43.4630   16.9706 H   0  0  0  0  0  0  0  0  0  0  0  0
    8.0432   44.0939   15.8657 H   0  0  0  0  0  0  0  0  0  0  0  0
    6.5565   44.0185   13.9636 H   0  0  0  0  0  0  0  0  0  0  0  0
    6.0256   43.2518   11.6386 H   0  0  0  0  0  0  0  0  0  0  0  0
    7.6699   41.8346   10.3852 H   0  0  0  0  0  0  0  0  0  0  0  0
    9.8340   41.1766   11.4509 H   0  0  0  0  0  0  0  0  0  0  0  0
   10.4702   39.1498   15.0790 H   0  0  0  0  0  0  0  0  0  0  0  0
    9.1422   37.0777   15.5654 H   0  0  0  0  0  0  0  0  0  0  0  0
    8.8613   36.2669   11.3158 H   0  0  0  0  0  0  0  0  0  0  0  0
  1  2  1  0
  2  3  1  0
  3  4  1  0
  4  5  2  0
  4  6  1  0
  6  7  1  0
  6  8  1  0
  8  9  1  0
  9 10  2  0
 10 11  1  0
 11 12  2  0
 11 13  1  0
 10 14  1  0
 14 15  1  0
 15 16  1  0
 16 17  2  0
 17 18  1  0
 18 19  2  0
 19 20  1  0
 20 21  2  0
 21 22  1  0
 22 23  2  0
 23 24  1  0
 24 25  2  0
 14 26  1  0
 26 27  2  0
 27 28  1  0
 28 29  2  0
 29 30  1  0
 29 31  1  0
 31 32  2  0
 32  9  1  0
 25 16  1  0
 32 26  1  0
 25 20  1  0
  1 33  1  0
  1 34  1  0
  1 35  1  0
  2 36  1  0
  2 37  1  0
  7 38  1  0
  7 39  1  0
  7 40  1  0
  8 41  1  0
  8 42  1  0
 15 43  1  0
 15 44  1  0
 17 45  1  0
 18 46  1  0
 19 47  1  0
 21 48  1  0
 22 49  1  0
 23 50  1  0
 24 51  1  0
 27 52  1  0
 28 53  1  0
 31 54  1  0
M  CHG  1  13  -1
M  END
>  <meeko>  (77) 
{"free_energy": -5.1, "intermolecular_energy": -7.49, "internal_energy": -1.63, "cluster_size": 86, "cluster_id": 25, "rank_in_cluster": 56}

$$$$

     RDKit          3D

 54 57  0  0  0  0  0  0  0  0999 V2000
    5.6810   38.6260    5.3810 C   0  0  0  0  0  0  0  0  0  0  0  0
    6.7830   38.4730    6.4330 C   0  0  0  0  0  0  0  0  0  0  0  0
    6.2710   37.7580    7.5460 O   0  0  0  0  0  0  0  0  0  0  0  0
    7.1110   37.0900    8.3650 C   0  0  0  0  0  0  0  0  0  0  0  0
    7.0840   35.8670    8.5120 O   0  0  0  0  0  0  0  0  0  0  0  0
    7.9940   37.9770    8.9940 N   0  0  0  0  0  0  0  0  0  0  0  0
    9.2330   38.4320    8.3520 C   0  0  0  0  0  0  0  0  0  0  0  0
    7.7340   38.4780   10.3500 C   0  0  0  0  0  0  0  0  0  0  0  0
    8.9430   39.1550   10.9520 C   0  0  0  0  0  0  0  0  0  0  0  0
   10.1930   38.6240   11.2140 C   0  0  0  0  0  0  0  0  0  0  0  0
   10.7200   37.2480   10.9490 C   0  0  0  0  0  0  0  0  0  0  0  0
   10.5200   36.3550   11.8000 O   0  0  0  0  0  0  0  0  0  0  0  0
   11.3630   37.0030    9.9050 O   0  0  0  0  0  1  0  0  0  0  0  0
   10.9840   39.6110   11.8390 N   0  0  0  0  0  0  0  0  0  0  0  0
   12.3750   39.5120   12.2890 C   0  0  0  0  0  0  0  0  0  0  0  0
   13.3880   39.1770   11.1870 C   0  0  0  0  0  0  0  0  0  0  0  0
   14.2950   38.0970   11.3370 C   0  0  0  0  0  0  0  0  0  0  0  0
   15.2240   37.7870   10.3300 C   0  0  0  0  0  0  0  0  0  0  0  0
   15.2660   38.5520    9.1530 C   0  0  0  0  0  0  0  0  0  0  0  0
   14.3780   39.6300    8.9810 C   0  0  0  0  0  0  0  0  0  0  0  0
   14.4350   40.3880    7.7930 C   0  0  0  0  0  0  0  0  0  0  0  0
   13.5580   41.4700    7.5990 C   0  0  0  0  0  0  0  0  0  0  0  0
   12.6200   41.7960    8.5950 C   0  0  0  0  0  0  0  0  0  0  0  0
   12.5580   41.0440    9.7830 C   0  0  0  0  0  0  0  0  0  0  0  0
   13.4340   39.9500    9.9950 C   0  0  0  0  0  0  0  0  0  0  0  0
   10.2390   40.7750   11.9770 C   0  0  0  0  0  0  0  0  0  0  0  0
   10.5520   42.0300   12.5400 C   0  0  0  0  0  0  0  0  0  0  0  0
    9.5930   43.0560   12.5400 C   0  0  0  0  0  0  0  0  0  0  0  0
    8.3260   42.8260   11.9760 C   0  0  0  0  0  0  0  0  0  0  0  0
    7.3980   43.8120   11.9690 F   0  0  0  0  0  0  0  0  0  0  0  0
    8.0200   41.5690   11.4190 C   0  0  0  0  0  0  0  0  0  0  0  0
    8.9630   40.5130   11.4110 C   0  0  0  0  0  0  0  0  0  0  0  0
    4.7113   38.7606    5.8826 H   0  0  0  0  0  0  0  0  0  0  0  0
    5.8935   39.5033    4.7523 H   0  0  0  0  0  0  0  0  0  0  0  0
    5.6465   37.7240    4.7523 H   0  0  0  0  0  0  0  0  0  0  0  0
    7.6306   37.9215    6.0001 H   0  0  0  0  0  0  0  0  0  0  0  0
    7.1235   39.4672    6.7580 H   0  0  0  0  0  0  0  0  0  0  0  0
    9.9683   38.7020    9.1242 H   0  0  0  0  0  0  0  0  0  0  0  0
    9.6392   37.6244    7.7253 H   0  0  0  0  0  0  0  0  0  0  0  0
    9.0200   39.3106    7.7253 H   0  0  0  0  0  0  0  0  0  0  0  0
    6.9074   39.2025   10.3071 H   0  0  0  0  0  0  0  0  0  0  0  0
    7.4798   37.6162   10.9845 H   0  0  0  0  0  0  0  0  0  0  0  0
   12.6600   40.4772   12.7332 H   0  0  0  0  0  0  0  0  0  0  0  0
   12.4093   38.6766   13.0038 H   0  0  0  0  0  0  0  0  0  0  0  0
   14.2706   37.4929   12.2559 H   0  0  0  0  0  0  0  0  0  0  0  0
   15.9188   36.9447   10.4634 H   0  0  0  0  0  0  0  0  0  0  0  0
   15.9937   38.3083    8.3649 H   0  0  0  0  0  0  0  0  0  0  0  0
   15.1688   40.1317    7.0147 H   0  0  0  0  0  0  0  0  0  0  0  0
   13.6054   42.0594    6.6714 H   0  0  0  0  0  0  0  0  0  0  0  0
   11.9326   42.6415    8.4449 H   0  0  0  0  0  0  0  0  0  0  0  0
   11.8213   41.3083   10.5559 H   0  0  0  0  0  0  0  0  0  0  0  0
   11.5456   42.2047   12.9783 H   0  0  0  0  0  0  0  0  0  0  0  0
    9.8323   44.0356   12.9795 H   0  0  0  0  0  0  0  0  0  0  0  0
    7.0250   41.4039   10.9799 H   0  0  0  0  0  0  0  0  0  0  0  0
  1  2  1  0
  2  3  1  0
  3  4  1  0
  4  5  2  0
  4  6  1  0
  6  7  1  0
  6  8  1  0
  8  9  1  0
  9 10  2  0
 10 11  1  0
 11 12  2  0
 11 13  1  0
 10 14  1  0
 14 15  1  0
 15 16  1  0
 16 17  2  0
 17 18  1  0
 18 19  2  0
 19 20  1  0
 20 21  2  0
 21 22  1  0
 22 23  2  0
 23 24  1  0
 24 25  2  0
 14 26  1  0
 26 27  2  0
 27 28  1  0
 28 29  2  0
 29 30  1  0
 29 31  1  0
 31 32  2  0
 32  9  1  0
 25 16  1  0
 32 26  1  0
 25 20  1  0
  1 33  1  0
  1 34  1  0
  1 35  1  0
  2 36  1  0
  2 37  1  0
  7 38  1  0
  7 39  1  0
  7 40  1  0
  8 41  1  0
  8 42  1  0
 15 43  1  0
 15 44  1  0
 17 45  1  0
 18 46  1  0
 19 47  1  0
 21 48  1  0
 22 49  1  0
 23 50  1  0
 24 51  1  0
 27 52  1  0
 28 53  1  0
 31 54  1  0
M  CHG  1  13  -1
M  END
>  <meeko>  (78) 
{"free_energy": -5.52, "intermolecular_energy": -7.91, "internal_energy": -1.89, "cluster_size": 87, "cluster_id": 14, "rank_in_cluster": 34}

$$$$

     RDKit          3D

 54 57  0  0  0  0  0  0  0  0999 V2000
   12.2090   33.5830   16.1260 C   0  0  0  0  0  0  0  0  0  0  0  0
   10.6920   33.4100   16.2400 C   0  0  0  0  0  0  0  0  0  0  0  0
   10.0490   34.5430   15.6790 O   0  0  0  0  0  0  0  0  0  0  0  0
   10.4300   35.7870   16.0440 C   0  0  0  0  0  0  0  0  0  0  0  0
   11.5970   36.1790   15.9980 O   0  0  0  0  0  0  0  0  0  0  0  0
    9.3230   36.5360   16.4620 N   0  0  0  0  0  0  0  0  0  0  0  0
    8.2140   35.9380   17.2130 C   0  0  0  0  0  0  0  0  0  0  0  0
    9.2040   37.9650   16.1400 C   0  0  0  0  0  0  0  0  0  0  0  0
    9.7810   38.2950   14.7830 C   0  0  0  0  0  0  0  0  0  0  0  0
    9.8320   37.5060   13.6480 C   0  0  0  0  0  0  0  0  0  0  0  0
    9.3060   36.1230   13.4220 C   0  0  0  0  0  0  0  0  0  0  0  0
    8.1240   35.8710   13.7400 O   0  0  0  0  0  0  0  0  0  0  0  0
   10.0410   35.2330   12.9430 O   0  0  0  0  0  1  0  0  0  0  0  0
   10.5200   38.2090   12.6360 N   0  0  0  0  0  0  0  0  0  0  0  0
   10.8100   37.7810   11.2650 C   0  0  0  0  0  0  0  0  0  0  0  0
    9.7320   38.1430   10.2350 C   0  0  0  0  0  0  0  0  0  0  0  0
    9.4400   39.4970    9.9350 C   0  0  0  0  0  0  0  0  0  0  0  0
    8.4530   39.8330    8.9920 C   0  0  0  0  0  0  0  0  0  0  0  0
    7.7380   38.8200    8.3330 C   0  0  0  0  0  0  0  0  0  0  0  0
    8.0080   37.4680    8.6150 C   0  0  0  0  0  0  0  0  0  0  0  0
    7.2790   36.4640    7.9440 C   0  0  0  0  0  0  0  0  0  0  0  0
    7.5320   35.1060    8.2100 C   0  0  0  0  0  0  0  0  0  0  0  0
    8.5160   34.7500    9.1490 C   0  0  0  0  0  0  0  0  0  0  0  0
    9.2470   35.7470    9.8230 C   0  0  0  0  0  0  0  0  0  0  0  0
    9.0050   37.1190    9.5670 C   0  0  0  0  0  0  0  0  0  0  0  0
   10.9110   39.4490   13.1250 C   0  0  0  0  0  0  0  0  0  0  0  0
   11.6270   40.5100   12.5340 C   0  0  0  0  0  0  0  0  0  0  0  0
   11.8810   41.6800   13.2690 C   0  0  0  0  0  0  0  0  0  0  0  0
   11.4180   41.7860   14.5910 C   0  0  0  0  0  0  0  0  0  0  0  0
   11.6560   42.9130   15.3040 F   0  0  0  0  0  0  0  0  0  0  0  0
   10.7060   40.7210   15.1770 C   0  0  0  0  0  0  0  0  0  0  0  0
   10.4400   39.5270   14.4630 C   0  0  0  0  0  0  0  0  0  0  0  0
   12.6490   33.6332   17.1329 H   0  0  0  0  0  0  0  0  0  0  0  0
   12.6357   32.7277   15.5816 H   0  0  0  0  0  0  0  0  0  0  0  0
   12.4322   34.5124   15.5816 H   0  0  0  0  0  0  0  0  0  0  0  0
   10.3832   32.5051   15.6962 H   0  0  0  0  0  0  0  0  0  0  0  0
   10.4101   33.3121   17.2988 H   0  0  0  0  0  0  0  0  0  0  0  0
    8.4042   36.0405   18.2916 H   0  0  0  0  0  0  0  0  0  0  0  0
    7.2768   36.4530   16.9553 H   0  0  0  0  0  0  0  0  0  0  0  0
    8.1294   34.8720   16.9553 H   0  0  0  0  0  0  0  0  0  0  0  0
    8.1397   38.2426   16.1493 H   0  0  0  0  0  0  0  0  0  0  0  0
    9.7719   38.5293   16.8944 H   0  0  0  0  0  0  0  0  0  0  0  0
   11.7537   38.2518   10.9522 H   0  0  0  0  0  0  0  0  0  0  0  0
   10.8590   36.6823   11.2880 H   0  0  0  0  0  0  0  0  0  0  0  0
    9.9940   40.2971   10.4478 H   0  0  0  0  0  0  0  0  0  0  0  0
    8.2409   40.8894    8.7704 H   0  0  0  0  0  0  0  0  0  0  0  0
    6.9658   39.0836    7.5953 H   0  0  0  0  0  0  0  0  0  0  0  0
    6.5094   36.7441    7.2096 H   0  0  0  0  0  0  0  0  0  0  0  0
    6.9619   34.3253    7.6851 H   0  0  0  0  0  0  0  0  0  0  0  0
    8.7155   33.6886    9.3579 H   0  0  0  0  0  0  0  0  0  0  0  0
   10.0142   35.4573   10.5562 H   0  0  0  0  0  0  0  0  0  0  0  0
   11.9865   40.4218   11.4982 H   0  0  0  0  0  0  0  0  0  0  0  0
   12.4400   42.5095   12.8113 H   0  0  0  0  0  0  0  0  0  0  0  0
   10.3485   40.8189   16.2127 H   0  0  0  0  0  0  0  0  0  0  0  0
  1  2  1  0
  2  3  1  0
  3  4  1  0
  4  5  2  0
  4  6  1  0
  6  7  1  0
  6  8  1  0
  8  9  1  0
  9 10  2  0
 10 11  1  0
 11 12  2  0
 11 13  1  0
 10 14  1  0
 14 15  1  0
 15 16  1  0
 16 17  2  0
 17 18  1  0
 18 19  2  0
 19 20  1  0
 20 21  2  0
 21 22  1  0
 22 23  2  0
 23 24  1  0
 24 25  2  0
 14 26  1  0
 26 27  2  0
 27 28  1  0
 28 29  2  0
 29 30  1  0
 29 31  1  0
 31 32  2  0
 32  9  1  0
 25 16  1  0
 32 26  1  0
 25 20  1  0
  1 33  1  0
  1 34  1  0
  1 35  1  0
  2 36  1  0
  2 37  1  0
  7 38  1  0
  7 39  1  0
  7 40  1  0
  8 41  1  0
  8 42  1  0
 15 43  1  0
 15 44  1  0
 17 45  1  0
 18 46  1  0
 19 47  1  0
 21 48  1  0
 22 49  1  0
 23 50  1  0
 24 51  1  0
 27 52  1  0
 28 53  1  0
 31 54  1  0
M  CHG  1  13  -1
M  END
>  <meeko>  (79) 
{"free_energy": -6.36, "intermolecular_energy": -8.75, "internal_energy": -1.28, "cluster_size": 163, "cluster_id": 4, "rank_in_cluster": 87}

$$$$

     RDKit          3D

 54 57  0  0  0  0  0  0  0  0999 V2000
    6.9680   36.5400   16.4720 C   0  0  0  0  0  0  0  0  0  0  0  0
    8.0200   37.3270   17.2570 C   0  0  0  0  0  0  0  0  0  0  0  0
    9.1220   36.4800   17.5410 O   0  0  0  0  0  0  0  0  0  0  0  0
    8.9640   35.1390   17.5290 C   0  0  0  0  0  0  0  0  0  0  0  0
    8.0440   34.5590   18.1080 O   0  0  0  0  0  0  0  0  0  0  0  0
    9.9760   34.5310   16.7740 N   0  0  0  0  0  0  0  0  0  0  0  0
    9.7880   33.2320   16.1200 C   0  0  0  0  0  0  0  0  0  0  0  0
   11.2950   35.1590   16.6230 C   0  0  0  0  0  0  0  0  0  0  0  0
   11.3100   36.2050   15.5330 C   0  0  0  0  0  0  0  0  0  0  0  0
   12.1290   37.3140   15.4070 C   0  0  0  0  0  0  0  0  0  0  0  0
   13.2490   37.7770   16.2830 C   0  0  0  0  0  0  0  0  0  0  0  0
   12.9810   38.2000   17.4280 O   0  0  0  0  0  0  0  0  0  0  0  0
   14.4300   37.7580   15.8710 O   0  0  0  0  0  1  0  0  0  0  0  0
   11.7370   38.0400   14.2620 N   0  0  0  0  0  0  0  0  0  0  0  0
   12.3170   39.2740   13.7240 C   0  0  0  0  0  0  0  0  0  0  0  0
   12.8850   39.1530   12.3040 C   0  0  0  0  0  0  0  0  0  0  0  0
   12.0650   39.3840   11.1710 C   0  0  0  0  0  0  0  0  0  0  0  0
   12.5820   39.2740    9.8690 C   0  0  0  0  0  0  0  0  0  0  0  0
   13.9290   38.9290    9.6740 C   0  0  0  0  0  0  0  0  0  0  0  0
   14.7640   38.6930   10.7830 C   0  0  0  0  0  0  0  0  0  0  0  0
   16.1140   38.3470   10.5690 C   0  0  0  0  0  0  0  0  0  0  0  0
   16.9660   38.1060   11.6620 C   0  0  0  0  0  0  0  0  0  0  0  0
   16.4680   38.2120   12.9730 C   0  0  0  0  0  0  0  0  0  0  0  0
   15.1210   38.5560   13.1930 C   0  0  0  0  0  0  0  0  0  0  0  0
   14.2490   38.8030   12.1040 C   0  0  0  0  0  0  0  0  0  0  0  0
   10.6660   37.3960   13.6560 C   0  0  0  0  0  0  0  0  0  0  0  0
    9.9060   37.7110   12.5110 C   0  0  0  0  0  0  0  0  0  0  0  0
    8.8610   36.8620   12.1080 C   0  0  0  0  0  0  0  0  0  0  0  0
    8.5810   35.7020   12.8490 C   0  0  0  0  0  0  0  0  0  0  0  0
    7.5780   34.8770   12.4640 F   0  0  0  0  0  0  0  0  0  0  0  0
    9.3420   35.3960   13.9940 C   0  0  0  0  0  0  0  0  0  0  0  0
   10.3960   36.2350   14.4290 C   0  0  0  0  0  0  0  0  0  0  0  0
    6.2900   36.0328   17.1742 H   0  0  0  0  0  0  0  0  0  0  0  0
    6.3909   37.2299   15.8388 H   0  0  0  0  0  0  0  0  0  0  0  0
    7.4669   35.7916   15.8388 H   0  0  0  0  0  0  0  0  0  0  0  0
    8.3602   38.1846   16.6581 H   0  0  0  0  0  0  0  0  0  0  0  0
    7.5822   37.6911   18.1982 H   0  0  0  0  0  0  0  0  0  0  0  0
    9.6747   32.4495   16.8847 H   0  0  0  0  0  0  0  0  0  0  0  0
    8.8852   33.2647   15.4924 H   0  0  0  0  0  0  0  0  0  0  0  0
   10.6630   33.0074   15.4924 H   0  0  0  0  0  0  0  0  0  0  0  0
   11.5709   35.6360   17.5750 H   0  0  0  0  0  0  0  0  0  0  0  0
   12.0125   34.3728   16.3452 H   0  0  0  0  0  0  0  0  0  0  0  0
   11.5323   40.0448   13.7140 H   0  0  0  0  0  0  0  0  0  0  0  0
   13.1659   39.5268   14.3762 H   0  0  0  0  0  0  0  0  0  0  0  0
   11.0080   39.6534   11.3132 H   0  0  0  0  0  0  0  0  0  0  0  0
   11.9309   39.4583    9.0018 H   0  0  0  0  0  0  0  0  0  0  0  0
   14.3323   38.8430    8.6542 H   0  0  0  0  0  0  0  0  0  0  0  0
   16.5025   38.2652    9.5432 H   0  0  0  0  0  0  0  0  0  0  0  0
   18.0185   37.8355   11.4919 H   0  0  0  0  0  0  0  0  0  0  0  0
   17.1332   38.0255   13.8290 H   0  0  0  0  0  0  0  0  0  0  0  0
   14.7409   38.6340   14.2223 H   0  0  0  0  0  0  0  0  0  0  0  0
   10.1307   38.6201   11.9338 H   0  0  0  0  0  0  0  0  0  0  0  0
    8.2649   37.1049   11.2160 H   0  0  0  0  0  0  0  0  0  0  0  0
    9.1119   34.4836   14.5637 H   0  0  0  0  0  0  0  0  0  0  0  0
  1  2  1  0
  2  3  1  0
  3  4  1  0
  4  5  2  0
  4  6  1  0
  6  7  1  0
  6  8  1  0
  8  9  1  0
  9 10  2  0
 10 11  1  0
 11 12  2  0
 11 13  1  0
 10 14  1  0
 14 15  1  0
 15 16  1  0
 16 17  2  0
 17 18  1  0
 18 19  2  0
 19 20  1  0
 20 21  2  0
 21 22  1  0
 22 23  2  0
 23 24  1  0
 24 25  2  0
 14 26  1  0
 26 27  2  0
 27 28  1  0
 28 29  2  0
 29 30  1  0
 29 31  1  0
 31 32  2  0
 32  9  1  0
 25 16  1  0
 32 26  1  0
 25 20  1  0
  1 33  1  0
  1 34  1  0
  1 35  1  0
  2 36  1  0
  2 37  1  0
  7 38  1  0
  7 39  1  0
  7 40  1  0
  8 41  1  0
  8 42  1  0
 15 43  1  0
 15 44  1  0
 17 45  1  0
 18 46  1  0
 19 47  1  0
 21 48  1  0
 22 49  1  0
 23 50  1  0
 24 51  1  0
 27 52  1  0
 28 53  1  0
 31 54  1  0
M  CHG  1  13  -1
M  END
>  <meeko>  (80) 
{"free_energy": -4.85, "intermolecular_energy": -7.24, "internal_energy": -1.89, "cluster_size": 84, "cluster_id": 58, "rank_in_cluster": 71}

$$$$

     RDKit          3D

 54 57  0  0  0  0  0  0  0  0999 V2000
    7.0970   34.7340   17.2760 C   0  0  0  0  0  0  0  0  0  0  0  0
    8.4670   34.3710   17.8540 C   0  0  0  0  0  0  0  0  0  0  0  0
    9.4740   35.0770   17.1460 O   0  0  0  0  0  0  0  0  0  0  0  0
    9.1470   36.1490   16.3940 C   0  0  0  0  0  0  0  0  0  0  0  0
    8.6500   37.1770   16.8580 O   0  0  0  0  0  0  0  0  0  0  0  0
    9.4580   35.9180   15.0480 N   0  0  0  0  0  0  0  0  0  0  0  0
   10.6660   35.1930   14.6390 C   0  0  0  0  0  0  0  0  0  0  0  0
    8.5970   36.4210   13.9690 C   0  0  0  0  0  0  0  0  0  0  0  0
    9.3620   37.2490   12.9640 C   0  0  0  0  0  0  0  0  0  0  0  0
   10.3210   38.2200   13.1920 C   0  0  0  0  0  0  0  0  0  0  0  0
   10.8990   38.7050   14.4840 C   0  0  0  0  0  0  0  0  0  0  0  0
   11.9380   38.1620   14.9180 O   0  0  0  0  0  0  0  0  0  0  0  0
   10.3430   39.6230   15.1250 O   0  0  0  0  0  1  0  0  0  0  0  0
   10.7130   38.7710   11.9530 N   0  0  0  0  0  0  0  0  0  0  0  0
   11.7060   39.8180   11.6950 C   0  0  0  0  0  0  0  0  0  0  0  0
   13.0990   39.5430   12.2760 C   0  0  0  0  0  0  0  0  0  0  0  0
   13.5790   40.2750   13.3910 C   0  0  0  0  0  0  0  0  0  0  0  0
   14.8550   40.0260   13.9260 C   0  0  0  0  0  0  0  0  0  0  0  0
   15.6760   39.0410   13.3540 C   0  0  0  0  0  0  0  0  0  0  0  0
   15.2230   38.3010   12.2450 C   0  0  0  0  0  0  0  0  0  0  0  0
   16.0610   37.3160   11.6840 C   0  0  0  0  0  0  0  0  0  0  0  0
   15.6300   36.5660   10.5760 C   0  0  0  0  0  0  0  0  0  0  0  0
   14.3560   36.7990   10.0270 C   0  0  0  0  0  0  0  0  0  0  0  0
   13.5150   37.7810   10.5820 C   0  0  0  0  0  0  0  0  0  0  0  0
   13.9340   38.5470   11.6990 C   0  0  0  0  0  0  0  0  0  0  0  0
   10.0050   38.1510   10.9320 C   0  0  0  0  0  0  0  0  0  0  0  0
   10.0120   38.3390    9.5340 C   0  0  0  0  0  0  0  0  0  0  0  0
    9.1840   37.5530    8.7170 C   0  0  0  0  0  0  0  0  0  0  0  0
    8.3520   36.5800    9.2990 C   0  0  0  0  0  0  0  0  0  0  0  0
    7.5540   35.8160    8.5160 F   0  0  0  0  0  0  0  0  0  0  0  0
    8.3470   36.4000   10.6950 C   0  0  0  0  0  0  0  0  0  0  0  0
    9.1660   37.1820   11.5450 C   0  0  0  0  0  0  0  0  0  0  0  0
    6.3902   34.9213   18.0978 H   0  0  0  0  0  0  0  0  0  0  0  0
    7.1881   35.6390   16.6574 H   0  0  0  0  0  0  0  0  0  0  0  0
    6.7281   33.9026   16.6574 H   0  0  0  0  0  0  0  0  0  0  0  0
    8.5025   34.6478   18.9180 H   0  0  0  0  0  0  0  0  0  0  0  0
    8.6351   33.2885   17.7544 H   0  0  0  0  0  0  0  0  0  0  0  0
   11.2158   34.8630   15.5327 H   0  0  0  0  0  0  0  0  0  0  0  0
   10.3818   34.3161   14.0388 H   0  0  0  0  0  0  0  0  0  0  0  0
   11.3062   35.8563   14.0388 H   0  0  0  0  0  0  0  0  0  0  0  0
    8.1438   35.5639   13.4494 H   0  0  0  0  0  0  0  0  0  0  0  0
    7.8308   37.0665   14.4232 H   0  0  0  0  0  0  0  0  0  0  0  0
   11.8065   39.9329   10.6056 H   0  0  0  0  0  0  0  0  0  0  0  0
   11.3360   40.7249   12.1957 H   0  0  0  0  0  0  0  0  0  0  0  0
   12.9433   41.0497   13.8446 H   0  0  0  0  0  0  0  0  0  0  0  0
   15.2102   40.6028   14.7927 H   0  0  0  0  0  0  0  0  0  0  0  0
   16.6745   38.8471   13.7728 H   0  0  0  0  0  0  0  0  0  0  0  0
   17.0564   37.1335   12.1151 H   0  0  0  0  0  0  0  0  0  0  0  0
   16.2870   35.7992   10.1396 H   0  0  0  0  0  0  0  0  0  0  0  0
   14.0162   36.2117    9.1612 H   0  0  0  0  0  0  0  0  0  0  0  0
   12.5212   37.9564   10.1443 H   0  0  0  0  0  0  0  0  0  0  0  0
   10.6657   39.1009    9.0843 H   0  0  0  0  0  0  0  0  0  0  0  0
    9.1860   37.6976    7.6265 H   0  0  0  0  0  0  0  0  0  0  0  0
    7.6918   35.6342   11.1357 H   0  0  0  0  0  0  0  0  0  0  0  0
  1  2  1  0
  2  3  1  0
  3  4  1  0
  4  5  2  0
  4  6  1  0
  6  7  1  0
  6  8  1  0
  8  9  1  0
  9 10  2  0
 10 11  1  0
 11 12  2  0
 11 13  1  0
 10 14  1  0
 14 15  1  0
 15 16  1  0
 16 17  2  0
 17 18  1  0
 18 19  2  0
 19 20  1  0
 20 21  2  0
 21 22  1  0
 22 23  2  0
 23 24  1  0
 24 25  2  0
 14 26  1  0
 26 27  2  0
 27 28  1  0
 28 29  2  0
 29 30  1  0
 29 31  1  0
 31 32  2  0
 32  9  1  0
 25 16  1  0
 32 26  1  0
 25 20  1  0
  1 33  1  0
  1 34  1  0
  1 35  1  0
  2 36  1  0
  2 37  1  0
  7 38  1  0
  7 39  1  0
  7 40  1  0
  8 41  1  0
  8 42  1  0
 15 43  1  0
 15 44  1  0
 17 45  1  0
 18 46  1  0
 19 47  1  0
 21 48  1  0
 22 49  1  0
 23 50  1  0
 24 51  1  0
 27 52  1  0
 28 53  1  0
 31 54  1  0
M  CHG  1  13  -1
M  END
>  <meeko>  (81) 
{"free_energy": -5.33, "intermolecular_energy": -7.72, "internal_energy": -2.02, "cluster_size": 84, "cluster_id": 58, "rank_in_cluster": 46}

$$$$

     RDKit          3D

 54 57  0  0  0  0  0  0  0  0999 V2000
    8.7990   43.0160   15.9550 C   0  0  0  0  0  0  0  0  0  0  0  0
   10.0310   42.2730   15.4310 C   0  0  0  0  0  0  0  0  0  0  0  0
   10.4860   41.3660   16.4220 O   0  0  0  0  0  0  0  0  0  0  0  0
   10.3970   40.0350   16.2140 C   0  0  0  0  0  0  0  0  0  0  0  0
    9.4940   39.3350   16.6760 O   0  0  0  0  0  0  0  0  0  0  0  0
   11.4550   39.5920   15.4090 N   0  0  0  0  0  0  0  0  0  0  0  0
   12.4400   38.6140   15.8850 C   0  0  0  0  0  0  0  0  0  0  0  0
   11.6470   40.1120   14.0490 C   0  0  0  0  0  0  0  0  0  0  0  0
   11.7080   39.0090   13.0180 C   0  0  0  0  0  0  0  0  0  0  0  0
   10.8590   37.9300   12.8520 C   0  0  0  0  0  0  0  0  0  0  0  0
    9.6240   37.5620   13.6140 C   0  0  0  0  0  0  0  0  0  0  0  0
    9.0260   38.4530   14.2540 O   0  0  0  0  0  0  0  0  0  0  0  0
    9.2120   36.3810   13.6250 O   0  0  0  0  0  1  0  0  0  0  0  0
   11.3450   37.1260   11.7990 N   0  0  0  0  0  0  0  0  0  0  0  0
   10.7740   35.8900   11.2590 C   0  0  0  0  0  0  0  0  0  0  0  0
    9.6140   36.0910   10.2750 C   0  0  0  0  0  0  0  0  0  0  0  0
    8.8640   34.9860    9.8000 C   0  0  0  0  0  0  0  0  0  0  0  0
    7.8010   35.1660    8.8990 C   0  0  0  0  0  0  0  0  0  0  0  0
    7.4680   36.4550    8.4530 C   0  0  0  0  0  0  0  0  0  0  0  0
    8.1990   37.5690    8.9080 C   0  0  0  0  0  0  0  0  0  0  0  0
    7.8520   38.8560    8.4500 C   0  0  0  0  0  0  0  0  0  0  0  0
    8.5680   39.9830    8.8910 C   0  0  0  0  0  0  0  0  0  0  0  0
    9.6340   39.8240    9.7940 C   0  0  0  0  0  0  0  0  0  0  0  0
    9.9870   38.5410   10.2550 C   0  0  0  0  0  0  0  0  0  0  0  0
    9.2760   37.3950    9.8210 C   0  0  0  0  0  0  0  0  0  0  0  0
   12.5070   37.6920   11.2910 C   0  0  0  0  0  0  0  0  0  0  0  0
   13.3780   37.2840   10.2590 C   0  0  0  0  0  0  0  0  0  0  0  0
   14.5000   38.0660    9.9390 C   0  0  0  0  0  0  0  0  0  0  0  0
   14.7470   39.2530   10.6500 C   0  0  0  0  0  0  0  0  0  0  0  0
   15.8260   40.0140   10.3440 F   0  0  0  0  0  0  0  0  0  0  0  0
   13.8750   39.6520   11.6820 C   0  0  0  0  0  0  0  0  0  0  0  0
   12.7400   38.8820   12.0310 C   0  0  0  0  0  0  0  0  0  0  0  0
    8.8079   43.0106   17.0550 H   0  0  0  0  0  0  0  0  0  0  0  0
    8.8158   44.0547   15.5932 H   0  0  0  0  0  0  0  0  0  0  0  0
    7.8882   42.5165   15.5932 H   0  0  0  0  0  0  0  0  0  0  0  0
    9.7656   41.7184   14.5189 H   0  0  0  0  0  0  0  0  0  0  0  0
   10.8270   42.9958   15.1986 H   0  0  0  0  0  0  0  0  0  0  0  0
   12.4474   38.6067   16.9850 H   0  0  0  0  0  0  0  0  0  0  0  0
   12.1727   37.6138   15.5134 H   0  0  0  0  0  0  0  0  0  0  0  0
   13.4383   38.8884   15.5134 H   0  0  0  0  0  0  0  0  0  0  0  0
   10.8081   40.7799   13.8037 H   0  0  0  0  0  0  0  0  0  0  0  0
   12.6069   40.6486   14.0257 H   0  0  0  0  0  0  0  0  0  0  0  0
   11.5736   35.3433   10.7377 H   0  0  0  0  0  0  0  0  0  0  0  0
   10.3593   35.3407   12.1171 H   0  0  0  0  0  0  0  0  0  0  0  0
    9.1181   33.9719   10.1420 H   0  0  0  0  0  0  0  0  0  0  0  0
    7.2293   34.2964    8.5428 H   0  0  0  0  0  0  0  0  0  0  0  0
    6.6355   36.5946    7.7477 H   0  0  0  0  0  0  0  0  0  0  0  0
    7.0172   38.9794    7.7443 H   0  0  0  0  0  0  0  0  0  0  0  0
    8.2950   40.9858    8.5307 H   0  0  0  0  0  0  0  0  0  0  0  0
   10.1941   40.7047   10.1415 H   0  0  0  0  0  0  0  0  0  0  0  0
   10.8239   38.4274   10.9598 H   0  0  0  0  0  0  0  0  0  0  0  0
   13.1787   36.3545    9.7056 H   0  0  0  0  0  0  0  0  0  0  0  0
   15.1822   37.7509    9.1357 H   0  0  0  0  0  0  0  0  0  0  0  0
   14.0811   40.5837   12.2293 H   0  0  0  0  0  0  0  0  0  0  0  0
  1  2  1  0
  2  3  1  0
  3  4  1  0
  4  5  2  0
  4  6  1  0
  6  7  1  0
  6  8  1  0
  8  9  1  0
  9 10  2  0
 10 11  1  0
 11 12  2  0
 11 13  1  0
 10 14  1  0
 14 15  1  0
 15 16  1  0
 16 17  2  0
 17 18  1  0
 18 19  2  0
 19 20  1  0
 20 21  2  0
 21 22  1  0
 22 23  2  0
 23 24  1  0
 24 25  2  0
 14 26  1  0
 26 27  2  0
 27 28  1  0
 28 29  2  0
 29 30  1  0
 29 31  1  0
 31 32  2  0
 32  9  1  0
 25 16  1  0
 32 26  1  0
 25 20  1  0
  1 33  1  0
  1 34  1  0
  1 35  1  0
  2 36  1  0
  2 37  1  0
  7 38  1  0
  7 39  1  0
  7 40  1  0
  8 41  1  0
  8 42  1  0
 15 43  1  0
 15 44  1  0
 17 45  1  0
 18 46  1  0
 19 47  1  0
 21 48  1  0
 22 49  1  0
 23 50  1  0
 24 51  1  0
 27 52  1  0
 28 53  1  0
 31 54  1  0
M  CHG  1  13  -1
M  END
>  <meeko>  (82) 
{"free_energy": -5.42, "intermolecular_energy": -7.8, "internal_energy": -0.58, "cluster_size": 283, "cluster_id": 7, "rank_in_cluster": 241}

$$$$

     RDKit          3D

 54 57  0  0  0  0  0  0  0  0999 V2000
   18.0750   41.1100   14.7730 C   0  0  0  0  0  0  0  0  0  0  0  0
   17.9560   39.7070   14.1730 C   0  0  0  0  0  0  0  0  0  0  0  0
   16.7260   39.6000   13.4750 O   0  0  0  0  0  0  0  0  0  0  0  0
   16.7210   39.3870   12.1420 C   0  0  0  0  0  0  0  0  0  0  0  0
   17.7400   39.1540   11.4890 O   0  0  0  0  0  0  0  0  0  0  0  0
   15.4170   39.4650   11.6360 N   0  0  0  0  0  0  0  0  0  0  0  0
   14.8210   38.3820   10.8460 C   0  0  0  0  0  0  0  0  0  0  0  0
   14.5870   40.6570   11.8500 C   0  0  0  0  0  0  0  0  0  0  0  0
   13.1190   40.3810   11.6200 C   0  0  0  0  0  0  0  0  0  0  0  0
   12.4670   40.0960   10.4330 C   0  0  0  0  0  0  0  0  0  0  0  0
   13.0220   39.9440    9.0520 C   0  0  0  0  0  0  0  0  0  0  0  0
   14.0050   40.6420    8.7200 O   0  0  0  0  0  0  0  0  0  0  0  0
   12.5020   39.1480    8.2410 O   0  0  0  0  0  1  0  0  0  0  0  0
   11.0850   39.9750   10.6920 N   0  0  0  0  0  0  0  0  0  0  0  0
   10.0050   39.6700    9.7490 C   0  0  0  0  0  0  0  0  0  0  0  0
    9.6860   38.1770    9.5950 C   0  0  0  0  0  0  0  0  0  0  0  0
   10.3950   37.2020   10.3400 C   0  0  0  0  0  0  0  0  0  0  0  0
   10.1060   35.8340   10.2030 C   0  0  0  0  0  0  0  0  0  0  0  0
    9.1020   35.4140    9.3150 C   0  0  0  0  0  0  0  0  0  0  0  0
    8.3840   36.3630    8.5630 C   0  0  0  0  0  0  0  0  0  0  0  0
    7.3800   35.9230    7.6760 C   0  0  0  0  0  0  0  0  0  0  0  0
    6.6500   36.8530    6.9140 C   0  0  0  0  0  0  0  0  0  0  0  0
    6.9240   38.2270    7.0380 C   0  0  0  0  0  0  0  0  0  0  0  0
    7.9260   38.6720    7.9210 C   0  0  0  0  0  0  0  0  0  0  0  0
    8.6710   37.7490    8.6970 C   0  0  0  0  0  0  0  0  0  0  0  0
   10.8530   40.1840   12.0450 C   0  0  0  0  0  0  0  0  0  0  0  0
    9.6650   40.1880   12.8050 C   0  0  0  0  0  0  0  0  0  0  0  0
    9.7200   40.4230   14.1890 C   0  0  0  0  0  0  0  0  0  0  0  0
   10.9610   40.6520   14.8090 C   0  0  0  0  0  0  0  0  0  0  0  0
   11.0200   40.8750   16.1430 F   0  0  0  0  0  0  0  0  0  0  0  0
   12.1420   40.6500   14.0430 C   0  0  0  0  0  0  0  0  0  0  0  0
   12.1180   40.4220   12.6450 C   0  0  0  0  0  0  0  0  0  0  0  0
   18.0691   41.0410   15.8708 H   0  0  0  0  0  0  0  0  0  0  0  0
   19.0156   41.5728   14.4397 H   0  0  0  0  0  0  0  0  0  0  0  0
   17.2258   41.7246   14.4397 H   0  0  0  0  0  0  0  0  0  0  0  0
   18.7900   39.5327   13.4773 H   0  0  0  0  0  0  0  0  0  0  0  0
   17.9904   38.9574   14.9773 H   0  0  0  0  0  0  0  0  0  0  0  0
   14.4028   37.6220   11.5224 H   0  0  0  0  0  0  0  0  0  0  0  0
   14.0198   38.7890   10.2116 H   0  0  0  0  0  0  0  0  0  0  0  0
   15.5935   37.9229   10.2116 H   0  0  0  0  0  0  0  0  0  0  0  0
   14.7242   41.0027   12.8852 H   0  0  0  0  0  0  0  0  0  0  0  0
   14.9035   41.4225   11.1262 H   0  0  0  0  0  0  0  0  0  0  0  0
    9.0942   40.1803   10.0955 H   0  0  0  0  0  0  0  0  0  0  0  0
   10.3487   40.0159    8.7630 H   0  0  0  0  0  0  0  0  0  0  0  0
   11.1841   37.5214   11.0366 H   0  0  0  0  0  0  0  0  0  0  0  0
   10.6659   35.0919   10.7911 H   0  0  0  0  0  0  0  0  0  0  0  0
    8.8766   34.3428    9.2071 H   0  0  0  0  0  0  0  0  0  0  0  0
    7.1668   34.8482    7.5796 H   0  0  0  0  0  0  0  0  0  0  0  0
    5.8671   36.5068    6.2232 H   0  0  0  0  0  0  0  0  0  0  0  0
    6.3538   38.9559    6.4434 H   0  0  0  0  0  0  0  0  0  0  0  0
    8.1332   39.7486    8.0098 H   0  0  0  0  0  0  0  0  0  0  0  0
    8.6969   40.0074   12.3149 H   0  0  0  0  0  0  0  0  0  0  0  0
    8.7957   40.4278   14.7853 H   0  0  0  0  0  0  0  0  0  0  0  0
   13.1059   40.8297   14.5415 H   0  0  0  0  0  0  0  0  0  0  0  0
  1  2  1  0
  2  3  1  0
  3  4  1  0
  4  5  2  0
  4  6  1  0
  6  7  1  0
  6  8  1  0
  8  9  1  0
  9 10  2  0
 10 11  1  0
 11 12  2  0
 11 13  1  0
 10 14  1  0
 14 15  1  0
 15 16  1  0
 16 17  2  0
 17 18  1  0
 18 19  2  0
 19 20  1  0
 20 21  2  0
 21 22  1  0
 22 23  2  0
 23 24  1  0
 24 25  2  0
 14 26  1  0
 26 27  2  0
 27 28  1  0
 28 29  2  0
 29 30  1  0
 29 31  1  0
 31 32  2  0
 32  9  1  0
 25 16  1  0
 32 26  1  0
 25 20  1  0
  1 33  1  0
  1 34  1  0
  1 35  1  0
  2 36  1  0
  2 37  1  0
  7 38  1  0
  7 39  1  0
  7 40  1  0
  8 41  1  0
  8 42  1  0
 15 43  1  0
 15 44  1  0
 17 45  1  0
 18 46  1  0
 19 47  1  0
 21 48  1  0
 22 49  1  0
 23 50  1  0
 24 51  1  0
 27 52  1  0
 28 53  1  0
 31 54  1  0
M  CHG  1  13  -1
M  END
>  <meeko>  (83) 
{"free_energy": -5.41, "intermolecular_energy": -7.79, "internal_energy": -1.39, "cluster_size": 20, "cluster_id": 87, "rank_in_cluster": 9}

$$$$

     RDKit          3D

 54 57  0  0  0  0  0  0  0  0999 V2000
    9.0040   46.8110   14.3640 C   0  0  0  0  0  0  0  0  0  0  0  0
    9.8830   46.3180   13.2120 C   0  0  0  0  0  0  0  0  0  0  0  0
    9.8620   44.9000   13.1820 O   0  0  0  0  0  0  0  0  0  0  0  0
   10.7260   44.1950   13.9430 C   0  0  0  0  0  0  0  0  0  0  0  0
   10.7480   44.2520   15.1730 O   0  0  0  0  0  0  0  0  0  0  0  0
   11.5600   43.4080   13.1380 N   0  0  0  0  0  0  0  0  0  0  0  0
   12.2340   43.9470   11.9510 C   0  0  0  0  0  0  0  0  0  0  0  0
   11.7790   41.9850   13.4300 C   0  0  0  0  0  0  0  0  0  0  0  0
   11.1590   41.0850   12.3870 C   0  0  0  0  0  0  0  0  0  0  0  0
    9.8590   41.0740   11.9140 C   0  0  0  0  0  0  0  0  0  0  0  0
    8.7080   41.9630   12.2670 C   0  0  0  0  0  0  0  0  0  0  0  0
    8.4900   42.2130   13.4720 O   0  0  0  0  0  0  0  0  0  0  0  0
    7.9690   42.4310   11.3740 O   0  0  0  0  0  1  0  0  0  0  0  0
    9.7200   40.0160   10.9910 N   0  0  0  0  0  0  0  0  0  0  0  0
    8.5320   39.6230   10.2280 C   0  0  0  0  0  0  0  0  0  0  0  0
    8.3240   38.1080   10.0930 C   0  0  0  0  0  0  0  0  0  0  0  0
    8.5710   37.2410   11.1870 C   0  0  0  0  0  0  0  0  0  0  0  0
    8.3810   35.8540   11.0670 C   0  0  0  0  0  0  0  0  0  0  0  0
    7.9440   35.3070    9.8500 C   0  0  0  0  0  0  0  0  0  0  0  0
    7.6940   36.1470    8.7490 C   0  0  0  0  0  0  0  0  0  0  0  0
    7.2560   35.5800    7.5340 C   0  0  0  0  0  0  0  0  0  0  0  0
    7.0010   36.4000    6.4200 C   0  0  0  0  0  0  0  0  0  0  0  0
    7.1830   37.7910    6.5200 C   0  0  0  0  0  0  0  0  0  0  0  0
    7.6210   38.3630    7.7300 C   0  0  0  0  0  0  0  0  0  0  0  0
    7.8820   37.5520    8.8620 C   0  0  0  0  0  0  0  0  0  0  0  0
   10.9330   39.3490   10.8740 C   0  0  0  0  0  0  0  0  0  0  0  0
   11.3190   38.2300   10.1070 C   0  0  0  0  0  0  0  0  0  0  0  0
   12.6410   37.7580   10.1730 C   0  0  0  0  0  0  0  0  0  0  0  0
   13.5710   38.4070   11.0030 C   0  0  0  0  0  0  0  0  0  0  0  0
   14.8480   37.9600   11.0680 F   0  0  0  0  0  0  0  0  0  0  0  0
   13.1770   39.5220   11.7680 C   0  0  0  0  0  0  0  0  0  0  0  0
   11.8510   40.0160   11.7280 C   0  0  0  0  0  0  0  0  0  0  0  0
    9.4742   46.5473   15.3228 H   0  0  0  0  0  0  0  0  0  0  0  0
    8.8924   47.9034   14.2985 H   0  0  0  0  0  0  0  0  0  0  0  0
    8.0137   46.3367   14.2985 H   0  0  0  0  0  0  0  0  0  0  0  0
    9.4968   46.7117   12.2602 H   0  0  0  0  0  0  0  0  0  0  0  0
   10.9151   46.6689   13.3588 H   0  0  0  0  0  0  0  0  0  0  0  0
   13.0575   44.6056   12.2643 H   0  0  0  0  0  0  0  0  0  0  0  0
   12.6358   43.1183   11.3495 H   0  0  0  0  0  0  0  0  0  0  0  0
   11.5139   44.5212   11.3495 H   0  0  0  0  0  0  0  0  0  0  0  0
   12.8616   41.7933   13.4646 H   0  0  0  0  0  0  0  0  0  0  0  0
   11.3011   41.7615   14.3952 H   0  0  0  0  0  0  0  0  0  0  0  0
    7.6486   40.0462   10.7286 H   0  0  0  0  0  0  0  0  0  0  0  0
    8.6790   40.0069    9.2077 H   0  0  0  0  0  0  0  0  0  0  0  0
    8.9164   37.6601   12.1436 H   0  0  0  0  0  0  0  0  0  0  0  0
    8.5748   35.1963   11.9271 H   0  0  0  0  0  0  0  0  0  0  0  0
    7.7969   34.2208    9.7571 H   0  0  0  0  0  0  0  0  0  0  0  0
    7.1132   34.4920    7.4574 H   0  0  0  0  0  0  0  0  0  0  0  0
    6.6603   35.9548    5.4736 H   0  0  0  0  0  0  0  0  0  0  0  0
    6.9826   38.4341    5.6504 H   0  0  0  0  0  0  0  0  0  0  0  0
    7.7621   39.4519    7.7970 H   0  0  0  0  0  0  0  0  0  0  0  0
   10.5864   37.7276    9.4582 H   0  0  0  0  0  0  0  0  0  0  0  0
   12.9464   36.8848    9.5779 H   0  0  0  0  0  0  0  0  0  0  0  0
   13.9168   40.0205   12.4115 H   0  0  0  0  0  0  0  0  0  0  0  0
  1  2  1  0
  2  3  1  0
  3  4  1  0
  4  5  2  0
  4  6  1  0
  6  7  1  0
  6  8  1  0
  8  9  1  0
  9 10  2  0
 10 11  1  0
 11 12  2  0
 11 13  1  0
 10 14  1  0
 14 15  1  0
 15 16  1  0
 16 17  2  0
 17 18  1  0
 18 19  2  0
 19 20  1  0
 20 21  2  0
 21 22  1  0
 22 23  2  0
 23 24  1  0
 24 25  2  0
 14 26  1  0
 26 27  2  0
 27 28  1  0
 28 29  2  0
 29 30  1  0
 29 31  1  0
 31 32  2  0
 32  9  1  0
 25 16  1  0
 32 26  1  0
 25 20  1  0
  1 33  1  0
  1 34  1  0
  1 35  1  0
  2 36  1  0
  2 37  1  0
  7 38  1  0
  7 39  1  0
  7 40  1  0
  8 41  1  0
  8 42  1  0
 15 43  1  0
 15 44  1  0
 17 45  1  0
 18 46  1  0
 19 47  1  0
 21 48  1  0
 22 49  1  0
 23 50  1  0
 24 51  1  0
 27 52  1  0
 28 53  1  0
 31 54  1  0
M  CHG  1  13  -1
M  END
>  <meeko>  (84) 
{"free_energy": -6.47, "intermolecular_energy": -8.86, "internal_energy": -1.49, "cluster_size": 210, "cluster_id": 15, "rank_in_cluster": 51}

$$$$

     RDKit          3D

 54 57  0  0  0  0  0  0  0  0999 V2000
   14.8390   39.3800   13.8090 C   0  0  0  0  0  0  0  0  0  0  0  0
   13.8530   38.4790   13.0610 C   0  0  0  0  0  0  0  0  0  0  0  0
   13.3490   39.1760   11.9330 O   0  0  0  0  0  0  0  0  0  0  0  0
   13.0860   38.5090   10.7880 C   0  0  0  0  0  0  0  0  0  0  0  0
   13.4270   37.3420   10.5900 O   0  0  0  0  0  0  0  0  0  0  0  0
   12.3830   39.3270    9.8930 N   0  0  0  0  0  0  0  0  0  0  0  0
   12.9470   39.7370    8.6030 C   0  0  0  0  0  0  0  0  0  0  0  0
   11.0460   39.8400   10.2200 C   0  0  0  0  0  0  0  0  0  0  0  0
   10.2570   38.8770   11.0760 C   0  0  0  0  0  0  0  0  0  0  0  0
   10.0890   38.8750   12.4490 C   0  0  0  0  0  0  0  0  0  0  0  0
   10.6040   39.8360   13.4750 C   0  0  0  0  0  0  0  0  0  0  0  0
   11.5190   40.6230   13.1530 O   0  0  0  0  0  0  0  0  0  0  0  0
   10.1400   39.8370   14.6360 O   0  0  0  0  0  1  0  0  0  0  0  0
    9.3230   37.7470   12.8120 N   0  0  0  0  0  0  0  0  0  0  0  0
    8.8840   37.3350   14.1480 C   0  0  0  0  0  0  0  0  0  0  0  0
    9.5370   36.0500   14.6740 C   0  0  0  0  0  0  0  0  0  0  0  0
    8.9220   34.7890   14.4730 C   0  0  0  0  0  0  0  0  0  0  0  0
    9.5160   33.6090   14.9520 C   0  0  0  0  0  0  0  0  0  0  0  0
   10.7370   33.6680   15.6440 C   0  0  0  0  0  0  0  0  0  0  0  0
   11.3670   34.9080   15.8580 C   0  0  0  0  0  0  0  0  0  0  0  0
   12.5920   34.9490   16.5550 C   0  0  0  0  0  0  0  0  0  0  0  0
   13.2390   36.1770   16.7800 C   0  0  0  0  0  0  0  0  0  0  0  0
   12.6610   37.3690   16.3080 C   0  0  0  0  0  0  0  0  0  0  0  0
   11.4370   37.3350   15.6120 C   0  0  0  0  0  0  0  0  0  0  0  0
   10.7720   36.1070   15.3750 C   0  0  0  0  0  0  0  0  0  0  0  0
    9.0010   37.0260   11.6690 C   0  0  0  0  0  0  0  0  0  0  0  0
    8.2760   35.8300   11.4860 C   0  0  0  0  0  0  0  0  0  0  0  0
    8.0900   35.3150   10.1920 C   0  0  0  0  0  0  0  0  0  0  0  0
    8.6270   35.9980    9.0870 C   0  0  0  0  0  0  0  0  0  0  0  0
    8.4480   35.5090    7.8370 F   0  0  0  0  0  0  0  0  0  0  0  0
    9.3530   37.1890    9.2780 C   0  0  0  0  0  0  0  0  0  0  0  0
    9.5630   37.7290   10.5700 C   0  0  0  0  0  0  0  0  0  0  0  0
   14.7011   39.2540   14.8930 H   0  0  0  0  0  0  0  0  0  0  0  0
   15.8681   39.1037   13.5357 H   0  0  0  0  0  0  0  0  0  0  0  0
   14.6563   40.4297   13.5357 H   0  0  0  0  0  0  0  0  0  0  0  0
   14.3680   37.5654   12.7292 H   0  0  0  0  0  0  0  0  0  0  0  0
   13.0224   38.2054   13.7283 H   0  0  0  0  0  0  0  0  0  0  0  0
   13.8260   40.3760    8.7736 H   0  0  0  0  0  0  0  0  0  0  0  0
   13.2472   38.8448    8.0339 H   0  0  0  0  0  0  0  0  0  0  0  0
   12.1909   40.2978    8.0339 H   0  0  0  0  0  0  0  0  0  0  0  0
   11.1547   40.7898   10.7641 H   0  0  0  0  0  0  0  0  0  0  0  0
   10.4982   39.9786    9.2762 H   0  0  0  0  0  0  0  0  0  0  0  0
    9.1166   38.1489   14.8504 H   0  0  0  0  0  0  0  0  0  0  0  0
    7.8074   37.1239   14.0679 H   0  0  0  0  0  0  0  0  0  0  0  0
    7.9649   34.7331   13.9337 H   0  0  0  0  0  0  0  0  0  0  0  0
    9.0248   32.6390   14.7850 H   0  0  0  0  0  0  0  0  0  0  0  0
   11.2012   32.7439   16.0190 H   0  0  0  0  0  0  0  0  0  0  0  0
   13.0435   34.0164   16.9243 H   0  0  0  0  0  0  0  0  0  0  0  0
   14.1948   36.2052   17.3238 H   0  0  0  0  0  0  0  0  0  0  0  0
   13.1661   38.3304   16.4828 H   0  0  0  0  0  0  0  0  0  0  0  0
   10.9923   38.2730   15.2482 H   0  0  0  0  0  0  0  0  0  0  0  0
    7.8569   35.3014   12.3549 H   0  0  0  0  0  0  0  0  0  0  0  0
    7.5268   34.3817   10.0444 H   0  0  0  0  0  0  0  0  0  0  0  0
    9.7667   37.7122    8.4033 H   0  0  0  0  0  0  0  0  0  0  0  0
  1  2  1  0
  2  3  1  0
  3  4  1  0
  4  5  2  0
  4  6  1  0
  6  7  1  0
  6  8  1  0
  8  9  1  0
  9 10  2  0
 10 11  1  0
 11 12  2  0
 11 13  1  0
 10 14  1  0
 14 15  1  0
 15 16  1  0
 16 17  2  0
 17 18  1  0
 18 19  2  0
 19 20  1  0
 20 21  2  0
 21 22  1  0
 22 23  2  0
 23 24  1  0
 24 25  2  0
 14 26  1  0
 26 27  2  0
 27 28  1  0
 28 29  2  0
 29 30  1  0
 29 31  1  0
 31 32  2  0
 32  9  1  0
 25 16  1  0
 32 26  1  0
 25 20  1  0
  1 33  1  0
  1 34  1  0
  1 35  1  0
  2 36  1  0
  2 37  1  0
  7 38  1  0
  7 39  1  0
  7 40  1  0
  8 41  1  0
  8 42  1  0
 15 43  1  0
 15 44  1  0
 17 45  1  0
 18 46  1  0
 19 47  1  0
 21 48  1  0
 22 49  1  0
 23 50  1  0
 24 51  1  0
 27 52  1  0
 28 53  1  0
 31 54  1  0
M  CHG  1  13  -1
M  END
>  <meeko>  (85) 
{"free_energy": -5.7, "intermolecular_energy": -8.09, "internal_energy": -2.36, "cluster_size": 191, "cluster_id": 13, "rank_in_cluster": 80}

$$$$

     RDKit          3D

 54 57  0  0  0  0  0  0  0  0999 V2000
    6.4690   39.2230    6.1390 C   0  0  0  0  0  0  0  0  0  0  0  0
    6.5830   37.8620    6.8300 C   0  0  0  0  0  0  0  0  0  0  0  0
    7.6760   37.8870    7.7340 O   0  0  0  0  0  0  0  0  0  0  0  0
    7.5510   37.3370    8.9610 C   0  0  0  0  0  0  0  0  0  0  0  0
    6.9720   37.8910    9.8970 O   0  0  0  0  0  0  0  0  0  0  0  0
    8.1590   36.0750    8.9980 N   0  0  0  0  0  0  0  0  0  0  0  0
    7.6660   34.9480    8.1990 C   0  0  0  0  0  0  0  0  0  0  0  0
    9.3130   35.8110    9.8670 C   0  0  0  0  0  0  0  0  0  0  0  0
    9.5270   36.9080   10.8830 C   0  0  0  0  0  0  0  0  0  0  0  0
    9.9660   38.2040   10.6800 C   0  0  0  0  0  0  0  0  0  0  0  0
   10.3200   38.9020    9.4050 C   0  0  0  0  0  0  0  0  0  0  0  0
   11.3240   38.5180    8.7680 O   0  0  0  0  0  0  0  0  0  0  0  0
    9.6350   39.8650    8.9950 O   0  0  0  0  0  1  0  0  0  0  0  0
   10.0750   38.8490   11.9310 N   0  0  0  0  0  0  0  0  0  0  0  0
   10.4900   40.2260   12.2130 C   0  0  0  0  0  0  0  0  0  0  0  0
   11.5420   40.7920   11.2490 C   0  0  0  0  0  0  0  0  0  0  0  0
   11.3320   42.0300   10.5910 C   0  0  0  0  0  0  0  0  0  0  0  0
   12.2920   42.5520    9.7080 C   0  0  0  0  0  0  0  0  0  0  0  0
   13.4810   41.8450    9.4650 C   0  0  0  0  0  0  0  0  0  0  0  0
   13.7120   40.6130   10.1060 C   0  0  0  0  0  0  0  0  0  0  0  0
   14.9120   39.9170    9.8490 C   0  0  0  0  0  0  0  0  0  0  0  0
   15.1640   38.6840   10.4770 C   0  0  0  0  0  0  0  0  0  0  0  0
   14.2160   38.1450   11.3650 C   0  0  0  0  0  0  0  0  0  0  0  0
   13.0160   38.8350   11.6250 C   0  0  0  0  0  0  0  0  0  0  0  0
   12.7460   40.0780   11.0010 C   0  0  0  0  0  0  0  0  0  0  0  0
    9.7060   37.9640   12.9350 C   0  0  0  0  0  0  0  0  0  0  0  0
    9.6520   38.1030   14.3380 C   0  0  0  0  0  0  0  0  0  0  0  0
    9.2240   37.0270   15.1330 C   0  0  0  0  0  0  0  0  0  0  0  0
    8.8490   35.8160   14.5240 C   0  0  0  0  0  0  0  0  0  0  0  0
    8.4320   34.7770   15.2850 F   0  0  0  0  0  0  0  0  0  0  0  0
    8.9090   35.6840   13.1230 C   0  0  0  0  0  0  0  0  0  0  0  0
    9.3430   36.7480   12.2960 C   0  0  0  0  0  0  0  0  0  0  0  0
    6.4026   40.0156    6.8989 H   0  0  0  0  0  0  0  0  0  0  0  0
    7.3562   39.3907    5.5108 H   0  0  0  0  0  0  0  0  0  0  0  0
    5.5662   39.2408    5.5108 H   0  0  0  0  0  0  0  0  0  0  0  0
    5.6548   37.6504    7.3810 H   0  0  0  0  0  0  0  0  0  0  0  0
    6.7453   37.0776    6.0761 H   0  0  0  0  0  0  0  0  0  0  0  0
    7.3164   34.1487    8.8690 H   0  0  0  0  0  0  0  0  0  0  0  0
    6.8331   35.2850    7.5644 H   0  0  0  0  0  0  0  0  0  0  0  0
    8.4788   34.5651    7.5644 H   0  0  0  0  0  0  0  0  0  0  0  0
    9.1456   34.8631   10.3995 H   0  0  0  0  0  0  0  0  0  0  0  0
   10.2092   35.7611    9.2312 H   0  0  0  0  0  0  0  0  0  0  0  0
    9.5989   40.8690   12.1628 H   0  0  0  0  0  0  0  0  0  0  0  0
   10.9587   40.2103   13.2080 H   0  0  0  0  0  0  0  0  0  0  0  0
   10.4034   42.5904   10.7746 H   0  0  0  0  0  0  0  0  0  0  0  0
   12.1124   43.5146    9.2069 H   0  0  0  0  0  0  0  0  0  0  0  0
   14.2322   42.2541    8.7734 H   0  0  0  0  0  0  0  0  0  0  0  0
   15.6532   40.3402    9.1550 H   0  0  0  0  0  0  0  0  0  0  0  0
   16.0999   38.1428   10.2742 H   0  0  0  0  0  0  0  0  0  0  0  0
   14.4123   37.1815   11.8581 H   0  0  0  0  0  0  0  0  0  0  0  0
   12.2804   38.4041   12.3201 H   0  0  0  0  0  0  0  0  0  0  0  0
    9.9448   39.0531   14.8088 H   0  0  0  0  0  0  0  0  0  0  0  0
    9.1823   37.1311   16.2273 H   0  0  0  0  0  0  0  0  0  0  0  0
    8.6115   34.7314   12.6603 H   0  0  0  0  0  0  0  0  0  0  0  0
  1  2  1  0
  2  3  1  0
  3  4  1  0
  4  5  2  0
  4  6  1  0
  6  7  1  0
  6  8  1  0
  8  9  1  0
  9 10  2  0
 10 11  1  0
 11 12  2  0
 11 13  1  0
 10 14  1  0
 14 15  1  0
 15 16  1  0
 16 17  2  0
 17 18  1  0
 18 19  2  0
 19 20  1  0
 20 21  2  0
 21 22  1  0
 22 23  2  0
 23 24  1  0
 24 25  2  0
 14 26  1  0
 26 27  2  0
 27 28  1  0
 28 29  2  0
 29 30  1  0
 29 31  1  0
 31 32  2  0
 32  9  1  0
 25 16  1  0
 32 26  1  0
 25 20  1  0
  1 33  1  0
  1 34  1  0
  1 35  1  0
  2 36  1  0
  2 37  1  0
  7 38  1  0
  7 39  1  0
  7 40  1  0
  8 41  1  0
  8 42  1  0
 15 43  1  0
 15 44  1  0
 17 45  1  0
 18 46  1  0
 19 47  1  0
 21 48  1  0
 22 49  1  0
 23 50  1  0
 24 51  1  0
 27 52  1  0
 28 53  1  0
 31 54  1  0
M  CHG  1  13  -1
M  END
>  <meeko>  (86) 
{"free_energy": -6.77, "intermolecular_energy": -9.16, "internal_energy": -1.8, "cluster_size": 124, "cluster_id": 20, "rank_in_cluster": 5}

$$$$

     RDKit          3D

 54 57  0  0  0  0  0  0  0  0999 V2000
   11.8730   39.2890   13.4500 C   0  0  0  0  0  0  0  0  0  0  0  0
   10.8420   40.0020   14.3290 C   0  0  0  0  0  0  0  0  0  0  0  0
   11.2920   41.3200   14.5990 O   0  0  0  0  0  0  0  0  0  0  0  0
   10.4150   42.3460   14.6020 C   0  0  0  0  0  0  0  0  0  0  0  0
    9.4170   42.3830   15.3240 O   0  0  0  0  0  0  0  0  0  0  0  0
   10.8090   43.3330   13.6890 N   0  0  0  0  0  0  0  0  0  0  0  0
   10.0880   44.6030   13.5520 C   0  0  0  0  0  0  0  0  0  0  0  0
   11.9570   43.1280   12.7960 C   0  0  0  0  0  0  0  0  0  0  0  0
   11.6230   42.2270   11.6300 C   0  0  0  0  0  0  0  0  0  0  0  0
   10.3910   41.7210   11.2520 C   0  0  0  0  0  0  0  0  0  0  0  0
    9.0410   41.9440   11.8570 C   0  0  0  0  0  0  0  0  0  0  0  0
    8.5020   41.0070   12.4830 O   0  0  0  0  0  0  0  0  0  0  0  0
    8.4570   43.0410   11.7220 O   0  0  0  0  0  1  0  0  0  0  0  0
   10.5720   40.8730   10.1380 N   0  0  0  0  0  0  0  0  0  0  0  0
    9.5570   40.1250    9.3900 C   0  0  0  0  0  0  0  0  0  0  0  0
    9.5410   38.6140    9.6590 C   0  0  0  0  0  0  0  0  0  0  0  0
   10.3830   38.0440   10.6460 C   0  0  0  0  0  0  0  0  0  0  0  0
   10.3700   36.6610   10.8960 C   0  0  0  0  0  0  0  0  0  0  0  0
    9.5170   35.8220   10.1620 C   0  0  0  0  0  0  0  0  0  0  0  0
    8.6730   36.3640    9.1750 C   0  0  0  0  0  0  0  0  0  0  0  0
    7.8230   35.5070    8.4460 C   0  0  0  0  0  0  0  0  0  0  0  0
    6.9710   36.0270    7.4550 C   0  0  0  0  0  0  0  0  0  0  0  0
    6.9680   37.4080    7.1910 C   0  0  0  0  0  0  0  0  0  0  0  0
    7.8150   38.2690    7.9140 C   0  0  0  0  0  0  0  0  0  0  0  0
    8.6790   37.7620    8.9160 C   0  0  0  0  0  0  0  0  0  0  0  0
   11.9190   40.8360    9.8050 C   0  0  0  0  0  0  0  0  0  0  0  0
   12.6190   40.1400    8.7980 C   0  0  0  0  0  0  0  0  0  0  0  0
   14.0100   40.2940    8.6770 C   0  0  0  0  0  0  0  0  0  0  0  0
   14.6960   41.1440    9.5610 C   0  0  0  0  0  0  0  0  0  0  0  0
   16.0370   41.3000    9.4470 F   0  0  0  0  0  0  0  0  0  0  0  0
   13.9910   41.8330   10.5670 C   0  0  0  0  0  0  0  0  0  0  0  0
   12.5900   41.6920   10.7180 C   0  0  0  0  0  0  0  0  0  0  0  0
   12.6096   38.7796   14.0886 H   0  0  0  0  0  0  0  0  0  0  0  0
   11.3642   38.5489   12.8149 H   0  0  0  0  0  0  0  0  0  0  0  0
   12.3859   40.0263   12.8149 H   0  0  0  0  0  0  0  0  0  0  0  0
    9.8763   40.0431   13.8039 H   0  0  0  0  0  0  0  0  0  0  0  0
   10.7184   39.4525   15.2739 H   0  0  0  0  0  0  0  0  0  0  0  0
    9.8599   45.0047   14.5503 H   0  0  0  0  0  0  0  0  0  0  0  0
   10.7127   45.3218   13.0015 H   0  0  0  0  0  0  0  0  0  0  0  0
    9.1506   44.4349   13.0015 H   0  0  0  0  0  0  0  0  0  0  0  0
   12.2813   44.1045   12.4069 H   0  0  0  0  0  0  0  0  0  0  0  0
   12.7540   42.6428   13.3786 H   0  0  0  0  0  0  0  0  0  0  0  0
    8.5692   40.5300    9.6551 H   0  0  0  0  0  0  0  0  0  0  0  0
    9.8053   40.2469    8.3253 H   0  0  0  0  0  0  0  0  0  0  0  0
   11.0564   38.6932   11.2248 H   0  0  0  0  0  0  0  0  0  0  0  0
   11.0288   36.2358   11.6675 H   0  0  0  0  0  0  0  0  0  0  0  0
    9.5083   34.7397   10.3585 H   0  0  0  0  0  0  0  0  0  0  0  0
    7.8263   34.4267    8.6533 H   0  0  0  0  0  0  0  0  0  0  0  0
    6.3092   35.3554    6.8884 H   0  0  0  0  0  0  0  0  0  0  0  0
    6.3017   37.8169    6.4171 H   0  0  0  0  0  0  0  0  0  0  0  0
    7.8060   39.3477    7.6986 H   0  0  0  0  0  0  0  0  0  0  0  0
   12.0764   39.4772    8.1079 H   0  0  0  0  0  0  0  0  0  0  0  0
   14.5598   39.7516    7.8937 H   0  0  0  0  0  0  0  0  0  0  0  0
   14.5412   42.4958   11.2511 H   0  0  0  0  0  0  0  0  0  0  0  0
  1  2  1  0
  2  3  1  0
  3  4  1  0
  4  5  2  0
  4  6  1  0
  6  7  1  0
  6  8  1  0
  8  9  1  0
  9 10  2  0
 10 11  1  0
 11 12  2  0
 11 13  1  0
 10 14  1  0
 14 15  1  0
 15 16  1  0
 16 17  2  0
 17 18  1  0
 18 19  2  0
 19 20  1  0
 20 21  2  0
 21 22  1  0
 22 23  2  0
 23 24  1  0
 24 25  2  0
 14 26  1  0
 26 27  2  0
 27 28  1  0
 28 29  2  0
 29 30  1  0
 29 31  1  0
 31 32  2  0
 32  9  1  0
 25 16  1  0
 32 26  1  0
 25 20  1  0
  1 33  1  0
  1 34  1  0
  1 35  1  0
  2 36  1  0
  2 37  1  0
  7 38  1  0
  7 39  1  0
  7 40  1  0
  8 41  1  0
  8 42  1  0
 15 43  1  0
 15 44  1  0
 17 45  1  0
 18 46  1  0
 19 47  1  0
 21 48  1  0
 22 49  1  0
 23 50  1  0
 24 51  1  0
 27 52  1  0
 28 53  1  0
 31 54  1  0
M  CHG  1  13  -1
M  END
>  <meeko>  (87) 
{"free_energy": -6.02, "intermolecular_energy": -8.4, "internal_energy": -2.18, "cluster_size": 210, "cluster_id": 15, "rank_in_cluster": 88}

$$$$

     RDKit          3D

 54 57  0  0  0  0  0  0  0  0999 V2000
   12.6760   38.1240   10.9560 C   0  0  0  0  0  0  0  0  0  0  0  0
   13.1860   38.5130   12.3460 C   0  0  0  0  0  0  0  0  0  0  0  0
   12.2400   39.3680   12.9670 O   0  0  0  0  0  0  0  0  0  0  0  0
   11.8090   39.1020   14.2190 C   0  0  0  0  0  0  0  0  0  0  0  0
   12.3900   38.3330   14.9870 O   0  0  0  0  0  0  0  0  0  0  0  0
   10.6400   39.8220   14.5000 N   0  0  0  0  0  0  0  0  0  0  0  0
    9.9660   40.6400   13.4860 C   0  0  0  0  0  0  0  0  0  0  0  0
   10.0450   39.8150   15.8430 C   0  0  0  0  0  0  0  0  0  0  0  0
    9.4520   38.4720   16.1990 C   0  0  0  0  0  0  0  0  0  0  0  0
    8.9670   38.0350   17.4190 C   0  0  0  0  0  0  0  0  0  0  0  0
    8.8550   38.7670   18.7190 C   0  0  0  0  0  0  0  0  0  0  0  0
    9.7340   38.5830   19.5880 O   0  0  0  0  0  0  0  0  0  0  0  0
    7.8910   39.5330   18.9370 O   0  0  0  0  0  1  0  0  0  0  0  0
    8.5710   36.6860   17.2930 N   0  0  0  0  0  0  0  0  0  0  0  0
    7.9910   35.8090   18.3140 C   0  0  0  0  0  0  0  0  0  0  0  0
    6.8540   36.4360   19.1320 C   0  0  0  0  0  0  0  0  0  0  0  0
    7.0460   36.7880   20.4910 C   0  0  0  0  0  0  0  0  0  0  0  0
    6.0080   37.3620   21.2440 C   0  0  0  0  0  0  0  0  0  0  0  0
    4.7560   37.5940   20.6520 C   0  0  0  0  0  0  0  0  0  0  0  0
    4.5390   37.2510   19.3040 C   0  0  0  0  0  0  0  0  0  0  0  0
    3.2750   37.4890   18.7260 C   0  0  0  0  0  0  0  0  0  0  0  0
    3.0360   37.1550   17.3810 C   0  0  0  0  0  0  0  0  0  0  0  0
    4.0620   36.5800   16.6110 C   0  0  0  0  0  0  0  0  0  0  0  0
    5.3260   36.3380   17.1820 C   0  0  0  0  0  0  0  0  0  0  0  0
    5.5850   36.6700   18.5350 C   0  0  0  0  0  0  0  0  0  0  0  0
    8.8050   36.2600   15.9920 C   0  0  0  0  0  0  0  0  0  0  0  0
    8.6020   35.0150   15.3600 C   0  0  0  0  0  0  0  0  0  0  0  0
    8.9240   34.8580   14.0020 C   0  0  0  0  0  0  0  0  0  0  0  0
    9.4450   35.9460   13.2800 C   0  0  0  0  0  0  0  0  0  0  0  0
    9.7540   35.8020   11.9690 F   0  0  0  0  0  0  0  0  0  0  0  0
    9.6480   37.1840   13.9180 C   0  0  0  0  0  0  0  0  0  0  0  0
    9.3400   37.3710   15.2880 C   0  0  0  0  0  0  0  0  0  0  0  0
   11.8051   37.4597   11.0576 H   0  0  0  0  0  0  0  0  0  0  0  0
   12.3835   39.0305   10.4058 H   0  0  0  0  0  0  0  0  0  0  0  0
   13.4729   37.6022   10.4058 H   0  0  0  0  0  0  0  0  0  0  0  0
   13.3194   37.6073   12.9558 H   0  0  0  0  0  0  0  0  0  0  0  0
   14.1504   39.0339   12.2536 H   0  0  0  0  0  0  0  0  0  0  0  0
    9.3416   41.3978   13.9819 H   0  0  0  0  0  0  0  0  0  0  0  0
   10.7186   41.1390   12.8578 H   0  0  0  0  0  0  0  0  0  0  0  0
    9.3323   39.9967   12.8578 H   0  0  0  0  0  0  0  0  0  0  0  0
   10.8256   40.0631   16.5773 H   0  0  0  0  0  0  0  0  0  0  0  0
    9.2324   40.5563   15.8555 H   0  0  0  0  0  0  0  0  0  0  0  0
    7.5972   34.9131   17.8117 H   0  0  0  0  0  0  0  0  0  0  0  0
    8.7991   35.5877   19.0268 H   0  0  0  0  0  0  0  0  0  0  0  0
    8.0229   36.6091   20.9638 H   0  0  0  0  0  0  0  0  0  0  0  0
    6.1761   37.6297   22.2976 H   0  0  0  0  0  0  0  0  0  0  0  0
    3.9441   38.0441   21.2421 H   0  0  0  0  0  0  0  0  0  0  0  0
    2.4725   37.9378   19.3297 H   0  0  0  0  0  0  0  0  0  0  0  0
    2.0492   37.3431   16.9328 H   0  0  0  0  0  0  0  0  0  0  0  0
    3.8767   36.3183   15.5588 H   0  0  0  0  0  0  0  0  0  0  0  0
    6.1213   35.8862   16.5710 H   0  0  0  0  0  0  0  0  0  0  0  0
    8.1920   34.1683   15.9302 H   0  0  0  0  0  0  0  0  0  0  0  0
    8.7693   33.8886   13.5058 H   0  0  0  0  0  0  0  0  0  0  0  0
   10.0554   38.0261   13.3393 H   0  0  0  0  0  0  0  0  0  0  0  0
  1  2  1  0
  2  3  1  0
  3  4  1  0
  4  5  2  0
  4  6  1  0
  6  7  1  0
  6  8  1  0
  8  9  1  0
  9 10  2  0
 10 11  1  0
 11 12  2  0
 11 13  1  0
 10 14  1  0
 14 15  1  0
 15 16  1  0
 16 17  2  0
 17 18  1  0
 18 19  2  0
 19 20  1  0
 20 21  2  0
 21 22  1  0
 22 23  2  0
 23 24  1  0
 24 25  2  0
 14 26  1  0
 26 27  2  0
 27 28  1  0
 28 29  2  0
 29 30  1  0
 29 31  1  0
 31 32  2  0
 32  9  1  0
 25 16  1  0
 32 26  1  0
 25 20  1  0
  1 33  1  0
  1 34  1  0
  1 35  1  0
  2 36  1  0
  2 37  1  0
  7 38  1  0
  7 39  1  0
  7 40  1  0
  8 41  1  0
  8 42  1  0
 15 43  1  0
 15 44  1  0
 17 45  1  0
 18 46  1  0
 19 47  1  0
 21 48  1  0
 22 49  1  0
 23 50  1  0
 24 51  1  0
 27 52  1  0
 28 53  1  0
 31 54  1  0
M  CHG  1  13  -1
M  END
>  <meeko>  (88) 
{"free_energy": -5.76, "intermolecular_energy": -8.14, "internal_energy": -1.83, "cluster_size": 49, "cluster_id": 27, "rank_in_cluster": 17}

$$$$

     RDKit          3D

 54 57  0  0  0  0  0  0  0  0999 V2000
    6.9930   38.7820    7.1720 C   0  0  0  0  0  0  0  0  0  0  0  0
    7.9990   39.1250    8.2730 C   0  0  0  0  0  0  0  0  0  0  0  0
    8.9600   38.0860    8.3670 O   0  0  0  0  0  0  0  0  0  0  0  0
   10.0330   38.2280    9.1750 C   0  0  0  0  0  0  0  0  0  0  0  0
   11.0720   38.7910    8.8290 O   0  0  0  0  0  0  0  0  0  0  0  0
    9.7820   37.6580   10.4300 N   0  0  0  0  0  0  0  0  0  0  0  0
    8.5420   36.9300   10.7230 C   0  0  0  0  0  0  0  0  0  0  0  0
   10.7450   37.7870   11.5320 C   0  0  0  0  0  0  0  0  0  0  0  0
   10.4530   38.9810   12.4100 C   0  0  0  0  0  0  0  0  0  0  0  0
   10.3010   40.3080   12.0460 C   0  0  0  0  0  0  0  0  0  0  0  0
   10.3470   40.9360   10.6890 C   0  0  0  0  0  0  0  0  0  0  0  0
    9.2710   41.1580   10.0930 O   0  0  0  0  0  0  0  0  0  0  0  0
   11.4420   41.2150   10.1530 O   0  0  0  0  0  1  0  0  0  0  0  0
   10.1020   41.0790   13.2110 N   0  0  0  0  0  0  0  0  0  0  0  0
    9.8860   42.5240   13.3210 C   0  0  0  0  0  0  0  0  0  0  0  0
    8.4130   42.9540   13.3720 C   0  0  0  0  0  0  0  0  0  0  0  0
    7.6150   42.9500   12.2010 C   0  0  0  0  0  0  0  0  0  0  0  0
    6.2660   43.3430   12.2420 C   0  0  0  0  0  0  0  0  0  0  0  0
    5.6910   43.7490   13.4570 C   0  0  0  0  0  0  0  0  0  0  0  0
    6.4630   43.7630   14.6340 C   0  0  0  0  0  0  0  0  0  0  0  0
    5.8680   44.1750   15.8440 C   0  0  0  0  0  0  0  0  0  0  0  0
    6.6210   44.1980   17.0320 C   0  0  0  0  0  0  0  0  0  0  0  0
    7.9720   43.8070   17.0110 C   0  0  0  0  0  0  0  0  0  0  0  0
    8.5720   43.3960   15.8050 C   0  0  0  0  0  0  0  0  0  0  0  0
    7.8280   43.3670   14.6000 C   0  0  0  0  0  0  0  0  0  0  0  0
   10.1270   40.2440   14.3220 C   0  0  0  0  0  0  0  0  0  0  0  0
    9.9940   40.5100   15.7000 C   0  0  0  0  0  0  0  0  0  0  0  0
   10.0500   39.4550   16.6260 C   0  0  0  0  0  0  0  0  0  0  0  0
   10.2380   38.1390   16.1710 C   0  0  0  0  0  0  0  0  0  0  0  0
   10.2890   37.1170   17.0580 F   0  0  0  0  0  0  0  0  0  0  0  0
   10.3740   37.8810   14.7930 C   0  0  0  0  0  0  0  0  0  0  0  0
   10.3280   38.9240   13.8370 C   0  0  0  0  0  0  0  0  0  0  0  0
    6.0457   38.4590    7.6285 H   0  0  0  0  0  0  0  0  0  0  0  0
    6.8152   39.6703    6.5480 H   0  0  0  0  0  0  0  0  0  0  0  0
    7.3949   37.9701    6.5480 H   0  0  0  0  0  0  0  0  0  0  0  0
    8.5033   40.0716    8.0287 H   0  0  0  0  0  0  0  0  0  0  0  0
    7.4737   39.2305    9.2337 H   0  0  0  0  0  0  0  0  0  0  0  0
    8.4107   36.8529   11.8124 H   0  0  0  0  0  0  0  0  0  0  0  0
    7.6882   37.4702   10.2881 H   0  0  0  0  0  0  0  0  0  0  0  0
    8.5976   35.9212   10.2881 H   0  0  0  0  0  0  0  0  0  0  0  0
   10.7027   36.8763   12.1475 H   0  0  0  0  0  0  0  0  0  0  0  0
   11.7434   37.9280   11.0924 H   0  0  0  0  0  0  0  0  0  0  0  0
   10.3765   42.8740   14.2413 H   0  0  0  0  0  0  0  0  0  0  0  0
   10.3067   42.9698   12.4077 H   0  0  0  0  0  0  0  0  0  0  0  0
    8.0581   42.6344   11.2449 H   0  0  0  0  0  0  0  0  0  0  0  0
    5.6614   43.3325   11.3231 H   0  0  0  0  0  0  0  0  0  0  0  0
    4.6354   44.0567   13.4891 H   0  0  0  0  0  0  0  0  0  0  0  0
    4.8111   44.4796   15.8591 H   0  0  0  0  0  0  0  0  0  0  0  0
    6.1547   44.5208   17.9745 H   0  0  0  0  0  0  0  0  0  0  0  0
    8.5617   43.8223   17.9394 H   0  0  0  0  0  0  0  0  0  0  0  0
    9.6298   43.0943   15.7987 H   0  0  0  0  0  0  0  0  0  0  0  0
    9.8465   41.5424   16.0498 H   0  0  0  0  0  0  0  0  0  0  0  0
    9.9472   39.6582   17.7022 H   0  0  0  0  0  0  0  0  0  0  0  0
   10.5193   36.8454   14.4519 H   0  0  0  0  0  0  0  0  0  0  0  0
  1  2  1  0
  2  3  1  0
  3  4  1  0
  4  5  2  0
  4  6  1  0
  6  7  1  0
  6  8  1  0
  8  9  1  0
  9 10  2  0
 10 11  1  0
 11 12  2  0
 11 13  1  0
 10 14  1  0
 14 15  1  0
 15 16  1  0
 16 17  2  0
 17 18  1  0
 18 19  2  0
 19 20  1  0
 20 21  2  0
 21 22  1  0
 22 23  2  0
 23 24  1  0
 24 25  2  0
 14 26  1  0
 26 27  2  0
 27 28  1  0
 28 29  2  0
 29 30  1  0
 29 31  1  0
 31 32  2  0
 32  9  1  0
 25 16  1  0
 32 26  1  0
 25 20  1  0
  1 33  1  0
  1 34  1  0
  1 35  1  0
  2 36  1  0
  2 37  1  0
  7 38  1  0
  7 39  1  0
  7 40  1  0
  8 41  1  0
  8 42  1  0
 15 43  1  0
 15 44  1  0
 17 45  1  0
 18 46  1  0
 19 47  1  0
 21 48  1  0
 22 49  1  0
 23 50  1  0
 24 51  1  0
 27 52  1  0
 28 53  1  0
 31 54  1  0
M  CHG  1  13  -1
M  END
>  <meeko>  (89) 
{"free_energy": -5.01, "intermolecular_energy": -7.4, "internal_energy": -1.9, "cluster_size": 86, "cluster_id": 25, "rank_in_cluster": 62}

$$$$

     RDKit          3D

 54 57  0  0  0  0  0  0  0  0999 V2000
   17.0630   40.8040    5.8350 C   0  0  0  0  0  0  0  0  0  0  0  0
   16.2850   40.3310    7.0650 C   0  0  0  0  0  0  0  0  0  0  0  0
   15.3210   41.3120    7.4140 O   0  0  0  0  0  0  0  0  0  0  0  0
   14.1370   40.9380    7.9450 C   0  0  0  0  0  0  0  0  0  0  0  0
   13.2720   40.3320    7.3110 O   0  0  0  0  0  0  0  0  0  0  0  0
   14.0540   41.3310    9.2870 N   0  0  0  0  0  0  0  0  0  0  0  0
   15.1150   41.0300   10.2550 C   0  0  0  0  0  0  0  0  0  0  0  0
   12.8780   42.0440    9.8010 C   0  0  0  0  0  0  0  0  0  0  0  0
   12.0540   41.1900   10.7360 C   0  0  0  0  0  0  0  0  0  0  0  0
   11.8900   39.8160   10.7360 C   0  0  0  0  0  0  0  0  0  0  0  0
   12.4990   38.7820    9.8430 C   0  0  0  0  0  0  0  0  0  0  0  0
   11.8330   38.3570    8.8750 O   0  0  0  0  0  0  0  0  0  0  0  0
   13.6460   38.3390   10.0720 O   0  0  0  0  0  1  0  0  0  0  0  0
   10.9780   39.4680   11.7560 N   0  0  0  0  0  0  0  0  0  0  0  0
   10.5060   38.1340   12.1390 C   0  0  0  0  0  0  0  0  0  0  0  0
    9.9220   37.3020   10.9890 C   0  0  0  0  0  0  0  0  0  0  0  0
   10.1450   35.9040   10.9190 C   0  0  0  0  0  0  0  0  0  0  0  0
    9.6120   35.1380    9.8670 C   0  0  0  0  0  0  0  0  0  0  0  0
    8.8480   35.7570    8.8650 C   0  0  0  0  0  0  0  0  0  0  0  0
    8.6150   37.1450    8.9110 C   0  0  0  0  0  0  0  0  0  0  0  0
    7.8460   37.7490    7.8950 C   0  0  0  0  0  0  0  0  0  0  0  0
    7.6000   39.1340    7.9210 C   0  0  0  0  0  0  0  0  0  0  0  0
    8.1230   39.9170    8.9650 C   0  0  0  0  0  0  0  0  0  0  0  0
    8.8930   39.3200    9.9820 C   0  0  0  0  0  0  0  0  0  0  0  0
    9.1500   37.9260    9.9720 C   0  0  0  0  0  0  0  0  0  0  0  0
   10.5590   40.6200   12.4090 C   0  0  0  0  0  0  0  0  0  0  0  0
    9.6570   40.8220   13.4730 C   0  0  0  0  0  0  0  0  0  0  0  0
    9.4190   42.1200   13.9530 C   0  0  0  0  0  0  0  0  0  0  0  0
   10.0840   43.2120   13.3700 C   0  0  0  0  0  0  0  0  0  0  0  0
    9.8620   44.4660   13.8310 F   0  0  0  0  0  0  0  0  0  0  0  0
   10.9820   43.0030   12.3040 C   0  0  0  0  0  0  0  0  0  0  0  0
   11.2370   41.7070   11.7940 C   0  0  0  0  0  0  0  0  0  0  0  0
   17.9617   41.3504    6.1573 H   0  0  0  0  0  0  0  0  0  0  0  0
   17.3599   39.9334    5.2318 H   0  0  0  0  0  0  0  0  0  0  0  0
   16.4267   41.4683    5.2318 H   0  0  0  0  0  0  0  0  0  0  0  0
   15.7779   39.3819    6.8368 H   0  0  0  0  0  0  0  0  0  0  0  0
   16.9788   40.1799    7.9051 H   0  0  0  0  0  0  0  0  0  0  0  0
   14.7220   41.1415   11.2763 H   0  0  0  0  0  0  0  0  0  0  0  0
   15.4641   39.9974   10.1072 H   0  0  0  0  0  0  0  0  0  0  0  0
   15.9543   41.7255   10.1072 H   0  0  0  0  0  0  0  0  0  0  0  0
   13.2161   42.9387   10.3443 H   0  0  0  0  0  0  0  0  0  0  0  0
   12.2444   42.3114    8.9425 H   0  0  0  0  0  0  0  0  0  0  0  0
   11.3554   37.5799   12.5649 H   0  0  0  0  0  0  0  0  0  0  0  0
    9.6859   38.2901   12.8552 H   0  0  0  0  0  0  0  0  0  0  0  0
   10.7438   35.4110   11.6990 H   0  0  0  0  0  0  0  0  0  0  0  0
    9.7937   34.0538    9.8292 H   0  0  0  0  0  0  0  0  0  0  0  0
    8.4308   35.1570    8.0429 H   0  0  0  0  0  0  0  0  0  0  0  0
    7.4369   37.1350    7.0791 H   0  0  0  0  0  0  0  0  0  0  0  0
    7.0003   39.6028    7.1269 H   0  0  0  0  0  0  0  0  0  0  0  0
    7.9301   40.9997    8.9876 H   0  0  0  0  0  0  0  0  0  0  0  0
    9.2994   39.9423   10.7929 H   0  0  0  0  0  0  0  0  0  0  0  0
    9.1400   39.9637   13.9269 H   0  0  0  0  0  0  0  0  0  0  0  0
    8.7146   42.2814   14.7823 H   0  0  0  0  0  0  0  0  0  0  0  0
   11.4967   43.8668   11.8579 H   0  0  0  0  0  0  0  0  0  0  0  0
  1  2  1  0
  2  3  1  0
  3  4  1  0
  4  5  2  0
  4  6  1  0
  6  7  1  0
  6  8  1  0
  8  9  1  0
  9 10  2  0
 10 11  1  0
 11 12  2  0
 11 13  1  0
 10 14  1  0
 14 15  1  0
 15 16  1  0
 16 17  2  0
 17 18  1  0
 18 19  2  0
 19 20  1  0
 20 21  2  0
 21 22  1  0
 22 23  2  0
 23 24  1  0
 24 25  2  0
 14 26  1  0
 26 27  2  0
 27 28  1  0
 28 29  2  0
 29 30  1  0
 29 31  1  0
 31 32  2  0
 32  9  1  0
 25 16  1  0
 32 26  1  0
 25 20  1  0
  1 33  1  0
  1 34  1  0
  1 35  1  0
  2 36  1  0
  2 37  1  0
  7 38  1  0
  7 39  1  0
  7 40  1  0
  8 41  1  0
  8 42  1  0
 15 43  1  0
 15 44  1  0
 17 45  1  0
 18 46  1  0
 19 47  1  0
 21 48  1  0
 22 49  1  0
 23 50  1  0
 24 51  1  0
 27 52  1  0
 28 53  1  0
 31 54  1  0
M  CHG  1  13  -1
M  END
>  <meeko>  (90) 
{"free_energy": -5.19, "intermolecular_energy": -7.57, "internal_energy": -1.83, "cluster_size": 61, "cluster_id": 70, "rank_in_cluster": 32}

$$$$

     RDKit          3D

 54 57  0  0  0  0  0  0  0  0999 V2000
    7.9760   39.0920   10.2040 C   0  0  0  0  0  0  0  0  0  0  0  0
    8.4130   38.5820    8.8280 C   0  0  0  0  0  0  0  0  0  0  0  0
    7.5970   37.4840    8.4550 O   0  0  0  0  0  0  0  0  0  0  0  0
    8.1340   36.2500    8.3410 C   0  0  0  0  0  0  0  0  0  0  0  0
    8.2240   35.6470    7.2710 O   0  0  0  0  0  0  0  0  0  0  0  0
    8.5640   35.7840    9.5900 N   0  0  0  0  0  0  0  0  0  0  0  0
    7.6260   35.2920   10.6050 C   0  0  0  0  0  0  0  0  0  0  0  0
    9.9870   35.7920    9.9570 C   0  0  0  0  0  0  0  0  0  0  0  0
   10.2780   36.7440   11.0940 C   0  0  0  0  0  0  0  0  0  0  0  0
   10.9860   37.9320   11.0690 C   0  0  0  0  0  0  0  0  0  0  0  0
   11.6330   38.6340    9.9170 C   0  0  0  0  0  0  0  0  0  0  0  0
   12.5560   39.4440   10.1480 O   0  0  0  0  0  0  0  0  0  0  0  0
   11.2430   38.4280    8.7460 O   0  0  0  0  0  1  0  0  0  0  0  0
   11.0570   38.4470   12.3820 N   0  0  0  0  0  0  0  0  0  0  0  0
   11.6940   39.6830   12.8420 C   0  0  0  0  0  0  0  0  0  0  0  0
   13.1230   39.5130   13.3740 C   0  0  0  0  0  0  0  0  0  0  0  0
   14.2160   39.3560   12.4850 C   0  0  0  0  0  0  0  0  0  0  0  0
   15.5260   39.2000   12.9680 C   0  0  0  0  0  0  0  0  0  0  0  0
   15.7690   39.1940   14.3510 C   0  0  0  0  0  0  0  0  0  0  0  0
   14.7000   39.3460   15.2550 C   0  0  0  0  0  0  0  0  0  0  0  0
   14.9620   39.3380   16.6410 C   0  0  0  0  0  0  0  0  0  0  0  0
   13.9100   39.4870   17.5620 C   0  0  0  0  0  0  0  0  0  0  0  0
   12.5920   39.6460   17.0980 C   0  0  0  0  0  0  0  0  0  0  0  0
   12.3240   39.6550   15.7160 C   0  0  0  0  0  0  0  0  0  0  0  0
   13.3720   39.5060   14.7740 C   0  0  0  0  0  0  0  0  0  0  0  0
   10.3930   37.5860   13.2470 C   0  0  0  0  0  0  0  0  0  0  0  0
   10.1870   37.6300   14.6410 C   0  0  0  0  0  0  0  0  0  0  0  0
    9.4560   36.6100   15.2740 C   0  0  0  0  0  0  0  0  0  0  0  0
    8.9330   35.5520   14.5110 C   0  0  0  0  0  0  0  0  0  0  0  0
    8.2240   34.5680   15.1140 F   0  0  0  0  0  0  0  0  0  0  0  0
    9.1460   35.5130   13.1190 C   0  0  0  0  0  0  0  0  0  0  0  0
    9.8840   36.5220   12.4540 C   0  0  0  0  0  0  0  0  0  0  0  0
    8.4778   38.5064   10.9884 H   0  0  0  0  0  0  0  0  0  0  0  0
    8.2502   40.1524   10.3061 H   0  0  0  0  0  0  0  0  0  0  0  0
    6.8861   38.9836   10.3061 H   0  0  0  0  0  0  0  0  0  0  0  0
    8.3066   39.3876    8.0866 H   0  0  0  0  0  0  0  0  0  0  0  0
    9.4647   38.2623    8.8702 H   0  0  0  0  0  0  0  0  0  0  0  0
    8.0270   35.5023   11.6075 H   0  0  0  0  0  0  0  0  0  0  0  0
    6.6566   35.7978   10.4843 H   0  0  0  0  0  0  0  0  0  0  0  0
    7.4910   34.2070   10.4843 H   0  0  0  0  0  0  0  0  0  0  0  0
   10.2800   34.7764   10.2615 H   0  0  0  0  0  0  0  0  0  0  0  0
   10.5600   36.1280    9.0802 H   0  0  0  0  0  0  0  0  0  0  0  0
   11.7253   40.3865   11.9969 H   0  0  0  0  0  0  0  0  0  0  0  0
   11.0907   40.0453   13.6875 H   0  0  0  0  0  0  0  0  0  0  0  0
   14.0356   39.3563   11.3999 H   0  0  0  0  0  0  0  0  0  0  0  0
   16.3617   39.0825   12.2625 H   0  0  0  0  0  0  0  0  0  0  0  0
   16.7948   39.0705   14.7284 H   0  0  0  0  0  0  0  0  0  0  0  0
   15.9935   39.2147   17.0028 H   0  0  0  0  0  0  0  0  0  0  0  0
   14.1173   39.4792   18.6423 H   0  0  0  0  0  0  0  0  0  0  0  0
   11.7680   39.7637   17.8171 H   0  0  0  0  0  0  0  0  0  0  0  0
   11.2894   39.7791   15.3635 H   0  0  0  0  0  0  0  0  0  0  0  0
   10.5978   38.4615   15.2325 H   0  0  0  0  0  0  0  0  0  0  0  0
    9.2940   36.6397   16.3616 H   0  0  0  0  0  0  0  0  0  0  0  0
    8.7292   34.6792   12.5350 H   0  0  0  0  0  0  0  0  0  0  0  0
  1  2  1  0
  2  3  1  0
  3  4  1  0
  4  5  2  0
  4  6  1  0
  6  7  1  0
  6  8  1  0
  8  9  1  0
  9 10  2  0
 10 11  1  0
 11 12  2  0
 11 13  1  0
 10 14  1  0
 14 15  1  0
 15 16  1  0
 16 17  2  0
 17 18  1  0
 18 19  2  0
 19 20  1  0
 20 21  2  0
 21 22  1  0
 22 23  2  0
 23 24  1  0
 24 25  2  0
 14 26  1  0
 26 27  2  0
 27 28  1  0
 28 29  2  0
 29 30  1  0
 29 31  1  0
 31 32  2  0
 32  9  1  0
 25 16  1  0
 32 26  1  0
 25 20  1  0
  1 33  1  0
  1 34  1  0
  1 35  1  0
  2 36  1  0
  2 37  1  0
  7 38  1  0
  7 39  1  0
  7 40  1  0
  8 41  1  0
  8 42  1  0
 15 43  1  0
 15 44  1  0
 17 45  1  0
 18 46  1  0
 19 47  1  0
 21 48  1  0
 22 49  1  0
 23 50  1  0
 24 51  1  0
 27 52  1  0
 28 53  1  0
 31 54  1  0
M  CHG  1  13  -1
M  END
>  <meeko>  (91) 
{"free_energy": -4.69, "intermolecular_energy": -7.08, "internal_energy": -1.9, "cluster_size": 51, "cluster_id": 80, "rank_in_cluster": 37}

$$$$

     RDKit          3D

 54 57  0  0  0  0  0  0  0  0999 V2000
   13.2870   35.3740   17.0030 C   0  0  0  0  0  0  0  0  0  0  0  0
   11.9640   35.6420   16.2820 C   0  0  0  0  0  0  0  0  0  0  0  0
   11.2260   34.4340   16.1950 O   0  0  0  0  0  0  0  0  0  0  0  0
   10.5010   34.1630   15.0890 C   0  0  0  0  0  0  0  0  0  0  0  0
   11.0030   33.8320   14.0140 O   0  0  0  0  0  0  0  0  0  0  0  0
    9.1320   34.3060   15.3510 N   0  0  0  0  0  0  0  0  0  0  0  0
    8.1830   33.2020   15.1680 C   0  0  0  0  0  0  0  0  0  0  0  0
    8.5720   35.5880   15.7990 C   0  0  0  0  0  0  0  0  0  0  0  0
    9.0900   36.7530   14.9880 C   0  0  0  0  0  0  0  0  0  0  0  0
    9.5720   37.9710   15.4320 C   0  0  0  0  0  0  0  0  0  0  0  0
    9.7530   38.4740   16.8300 C   0  0  0  0  0  0  0  0  0  0  0  0
   10.8960   38.4480   17.3340 O   0  0  0  0  0  0  0  0  0  0  0  0
    8.7750   38.8930   17.4860 O   0  0  0  0  0  1  0  0  0  0  0  0
    9.8830   38.7720   14.3120 N   0  0  0  0  0  0  0  0  0  0  0  0
   10.4300   40.1320   14.2890 C   0  0  0  0  0  0  0  0  0  0  0  0
   11.7370   40.2880   13.4990 C   0  0  0  0  0  0  0  0  0  0  0  0
   11.7530   40.9460   12.2440 C   0  0  0  0  0  0  0  0  0  0  0  0
   12.9470   41.0910   11.5180 C   0  0  0  0  0  0  0  0  0  0  0  0
   14.1490   40.5790   12.0330 C   0  0  0  0  0  0  0  0  0  0  0  0
   14.1590   39.9200   13.2770 C   0  0  0  0  0  0  0  0  0  0  0  0
   15.3750   39.4110   13.7790 C   0  0  0  0  0  0  0  0  0  0  0  0
   15.4080   38.7490   15.0190 C   0  0  0  0  0  0  0  0  0  0  0  0
   14.2240   38.5940   15.7610 C   0  0  0  0  0  0  0  0  0  0  0  0
   13.0060   39.0990   15.2650 C   0  0  0  0  0  0  0  0  0  0  0  0
   12.9550   39.7690   14.0180 C   0  0  0  0  0  0  0  0  0  0  0  0
    9.5990   38.0650   13.1510 C   0  0  0  0  0  0  0  0  0  0  0  0
    9.7150   38.4100   11.7880 C   0  0  0  0  0  0  0  0  0  0  0  0
    9.3580   37.4810   10.7970 C   0  0  0  0  0  0  0  0  0  0  0  0
    8.8890   36.2100   11.1710 C   0  0  0  0  0  0  0  0  0  0  0  0
    8.5460   35.3080   10.2210 F   0  0  0  0  0  0  0  0  0  0  0  0
    8.7730   35.8730   12.5340 C   0  0  0  0  0  0  0  0  0  0  0  0
    9.1180   36.7910   13.5550 C   0  0  0  0  0  0  0  0  0  0  0  0
   13.1251   35.4068   18.0905 H   0  0  0  0  0  0  0  0  0  0  0  0
   13.6651   34.3810   16.7184 H   0  0  0  0  0  0  0  0  0  0  0  0
   14.0217   36.1416   16.7184 H   0  0  0  0  0  0  0  0  0  0  0  0
   11.3833   36.3880   16.8444 H   0  0  0  0  0  0  0  0  0  0  0  0
   12.1658   36.0249   15.2707 H   0  0  0  0  0  0  0  0  0  0  0  0
    7.8615   32.8280   16.1513 H   0  0  0  0  0  0  0  0  0  0  0  0
    7.3069   33.5606   14.6078 H   0  0  0  0  0  0  0  0  0  0  0  0
    8.6691   32.3897   14.6078 H   0  0  0  0  0  0  0  0  0  0  0  0
    7.4769   35.5489   15.7030 H   0  0  0  0  0  0  0  0  0  0  0  0
    8.8775   35.7425   16.8444 H   0  0  0  0  0  0  0  0  0  0  0  0
    9.6771   40.7959   13.8391 H   0  0  0  0  0  0  0  0  0  0  0  0
   10.6669   40.3877   15.3323 H   0  0  0  0  0  0  0  0  0  0  0  0
   10.8162   41.3494   11.8320 H   0  0  0  0  0  0  0  0  0  0  0  0
   12.9404   41.6057   10.5459 H   0  0  0  0  0  0  0  0  0  0  0  0
   15.0834   40.6930   11.4639 H   0  0  0  0  0  0  0  0  0  0  0  0
   16.3011   39.5325   13.1980 H   0  0  0  0  0  0  0  0  0  0  0  0
   16.3580   38.3533   15.4076 H   0  0  0  0  0  0  0  0  0  0  0  0
   14.2487   38.0770   16.7316 H   0  0  0  0  0  0  0  0  0  0  0  0
   12.0847   38.9717   15.8523 H   0  0  0  0  0  0  0  0  0  0  0  0
   10.0847   39.4057   11.5017 H   0  0  0  0  0  0  0  0  0  0  0  0
    9.4451   37.7469    9.7332 H   0  0  0  0  0  0  0  0  0  0  0  0
    8.4060   34.8738   12.8112 H   0  0  0  0  0  0  0  0  0  0  0  0
  1  2  1  0
  2  3  1  0
  3  4  1  0
  4  5  2  0
  4  6  1  0
  6  7  1  0
  6  8  1  0
  8  9  1  0
  9 10  2  0
 10 11  1  0
 11 12  2  0
 11 13  1  0
 10 14  1  0
 14 15  1  0
 15 16  1  0
 16 17  2  0
 17 18  1  0
 18 19  2  0
 19 20  1  0
 20 21  2  0
 21 22  1  0
 22 23  2  0
 23 24  1  0
 24 25  2  0
 14 26  1  0
 26 27  2  0
 27 28  1  0
 28 29  2  0
 29 30  1  0
 29 31  1  0
 31 32  2  0
 32  9  1  0
 25 16  1  0
 32 26  1  0
 25 20  1  0
  1 33  1  0
  1 34  1  0
  1 35  1  0
  2 36  1  0
  2 37  1  0
  7 38  1  0
  7 39  1  0
  7 40  1  0
  8 41  1  0
  8 42  1  0
 15 43  1  0
 15 44  1  0
 17 45  1  0
 18 46  1  0
 19 47  1  0
 21 48  1  0
 22 49  1  0
 23 50  1  0
 24 51  1  0
 27 52  1  0
 28 53  1  0
 31 54  1  0
M  CHG  1  13  -1
M  END
>  <meeko>  (92) 
{"free_energy": -4.28, "intermolecular_energy": -6.66, "internal_energy": -2.61, "cluster_size": 84, "cluster_id": 58, "rank_in_cluster": 78}

$$$$

     RDKit          3D

 54 57  0  0  0  0  0  0  0  0999 V2000
   14.3430   41.5580   15.5370 C   0  0  0  0  0  0  0  0  0  0  0  0
   14.1360   40.2120   14.8380 C   0  0  0  0  0  0  0  0  0  0  0  0
   12.7470   39.9470   14.7360 O   0  0  0  0  0  0  0  0  0  0  0  0
   12.3130   38.8530   14.0740 C   0  0  0  0  0  0  0  0  0  0  0  0
   12.8070   38.4600   13.0160 O   0  0  0  0  0  0  0  0  0  0  0  0
   11.2530   38.2500   14.7630 N   0  0  0  0  0  0  0  0  0  0  0  0
   11.4580   37.1220   15.6790 C   0  0  0  0  0  0  0  0  0  0  0  0
    9.8680   38.7030   14.5780 C   0  0  0  0  0  0  0  0  0  0  0  0
    9.7680   39.8520   13.6020 C   0  0  0  0  0  0  0  0  0  0  0  0
    9.7580   41.2110   13.8610 C   0  0  0  0  0  0  0  0  0  0  0  0
    9.8780   41.9350   15.1660 C   0  0  0  0  0  0  0  0  0  0  0  0
    8.8440   42.1340   15.8380 O   0  0  0  0  0  0  0  0  0  0  0  0
   10.9890   42.3480   15.5650 O   0  0  0  0  0  1  0  0  0  0  0  0
    9.5840   41.9050   12.6440 N   0  0  0  0  0  0  0  0  0  0  0  0
    9.5210   43.3520   12.4220 C   0  0  0  0  0  0  0  0  0  0  0  0
    8.9200   44.1570   13.5820 C   0  0  0  0  0  0  0  0  0  0  0  0
    9.7450   44.9500   14.4190 C   0  0  0  0  0  0  0  0  0  0  0  0
    9.1990   45.6900   15.4820 C   0  0  0  0  0  0  0  0  0  0  0  0
    7.8170   45.6480   15.7300 C   0  0  0  0  0  0  0  0  0  0  0  0
    6.9780   44.8660   14.9140 C   0  0  0  0  0  0  0  0  0  0  0  0
    5.5930   44.8360   15.1780 C   0  0  0  0  0  0  0  0  0  0  0  0
    4.7350   44.0620   14.3760 C   0  0  0  0  0  0  0  0  0  0  0  0
    5.2620   43.3160   13.3060 C   0  0  0  0  0  0  0  0  0  0  0  0
    6.6440   43.3420   13.0380 C   0  0  0  0  0  0  0  0  0  0  0  0
    7.5220   44.1160   13.8360 C   0  0  0  0  0  0  0  0  0  0  0  0
    9.4810   40.9880   11.6060 C   0  0  0  0  0  0  0  0  0  0  0  0
    9.2870   41.1570   10.2200 C   0  0  0  0  0  0  0  0  0  0  0  0
    9.2290   40.0330    9.3780 C   0  0  0  0  0  0  0  0  0  0  0  0
    9.3660   38.7460    9.9250 C   0  0  0  0  0  0  0  0  0  0  0  0
    9.3150   37.6580    9.1190 F   0  0  0  0  0  0  0  0  0  0  0  0
    9.5560   38.5850   11.3120 C   0  0  0  0  0  0  0  0  0  0  0  0
    9.6120   39.6980   12.1850 C   0  0  0  0  0  0  0  0  0  0  0  0
   14.3206   41.4123   16.6271 H   0  0  0  0  0  0  0  0  0  0  0  0
   15.3163   41.9779   15.2431 H   0  0  0  0  0  0  0  0  0  0  0  0
   13.5409   42.2510   15.2431 H   0  0  0  0  0  0  0  0  0  0  0  0
   14.5782   40.2486   13.8315 H   0  0  0  0  0  0  0  0  0  0  0  0
   14.6219   39.4152   15.4203 H   0  0  0  0  0  0  0  0  0  0  0  0
   11.3935   37.4771   16.7181 H   0  0  0  0  0  0  0  0  0  0  0  0
   10.6834   36.3611   15.5028 H   0  0  0  0  0  0  0  0  0  0  0  0
   12.4508   36.6823   15.5028 H   0  0  0  0  0  0  0  0  0  0  0  0
    9.2683   37.8626   14.1983 H   0  0  0  0  0  0  0  0  0  0  0  0
    9.4950   39.0539   15.5515 H   0  0  0  0  0  0  0  0  0  0  0  0
   10.5442   43.7160   12.2473 H   0  0  0  0  0  0  0  0  0  0  0  0
    8.8526   43.5038   11.5616 H   0  0  0  0  0  0  0  0  0  0  0  0
   10.8287   44.9867   14.2337 H   0  0  0  0  0  0  0  0  0  0  0  0
    9.8539   46.3020   16.1197 H   0  0  0  0  0  0  0  0  0  0  0  0
    7.3901   46.2266   16.5625 H   0  0  0  0  0  0  0  0  0  0  0  0
    5.1820   45.4203   16.0145 H   0  0  0  0  0  0  0  0  0  0  0  0
    3.6552   44.0401   14.5848 H   0  0  0  0  0  0  0  0  0  0  0  0
    4.5926   42.7108   12.6771 H   0  0  0  0  0  0  0  0  0  0  0  0
    7.0465   42.7547   12.1995 H   0  0  0  0  0  0  0  0  0  0  0  0
    9.1811   42.1673    9.7979 H   0  0  0  0  0  0  0  0  0  0  0  0
    9.0771   40.1603    8.2960 H   0  0  0  0  0  0  0  0  0  0  0  0
    9.6632   37.5714   11.7257 H   0  0  0  0  0  0  0  0  0  0  0  0
  1  2  1  0
  2  3  1  0
  3  4  1  0
  4  5  2  0
  4  6  1  0
  6  7  1  0
  6  8  1  0
  8  9  1  0
  9 10  2  0
 10 11  1  0
 11 12  2  0
 11 13  1  0
 10 14  1  0
 14 15  1  0
 15 16  1  0
 16 17  2  0
 17 18  1  0
 18 19  2  0
 19 20  1  0
 20 21  2  0
 21 22  1  0
 22 23  2  0
 23 24  1  0
 24 25  2  0
 14 26  1  0
 26 27  2  0
 27 28  1  0
 28 29  2  0
 29 30  1  0
 29 31  1  0
 31 32  2  0
 32  9  1  0
 25 16  1  0
 32 26  1  0
 25 20  1  0
  1 33  1  0
  1 34  1  0
  1 35  1  0
  2 36  1  0
  2 37  1  0
  7 38  1  0
  7 39  1  0
  7 40  1  0
  8 41  1  0
  8 42  1  0
 15 43  1  0
 15 44  1  0
 17 45  1  0
 18 46  1  0
 19 47  1  0
 21 48  1  0
 22 49  1  0
 23 50  1  0
 24 51  1  0
 27 52  1  0
 28 53  1  0
 31 54  1  0
M  CHG  1  13  -1
M  END
>  <meeko>  (93) 
{"free_energy": -4.57, "intermolecular_energy": -6.96, "internal_energy": -1.97, "cluster_size": 13, "cluster_id": 159, "rank_in_cluster": 12}

$$$$

     RDKit          3D

 54 57  0  0  0  0  0  0  0  0999 V2000
    9.0130   34.5570   15.2350 C   0  0  0  0  0  0  0  0  0  0  0  0
    8.6620   35.7980   14.4120 C   0  0  0  0  0  0  0  0  0  0  0  0
    9.4280   35.7990   13.2180 O   0  0  0  0  0  0  0  0  0  0  0  0
    8.8530   36.1410   12.0450 C   0  0  0  0  0  0  0  0  0  0  0  0
    7.9680   35.4750   11.5060 O   0  0  0  0  0  0  0  0  0  0  0  0
    9.4010   37.3350   11.5590 N   0  0  0  0  0  0  0  0  0  0  0  0
    8.7910   38.0790   10.4510 C   0  0  0  0  0  0  0  0  0  0  0  0
   10.6400   37.8890   12.1200 C   0  0  0  0  0  0  0  0  0  0  0  0
   10.9040   39.2980   11.6430 C   0  0  0  0  0  0  0  0  0  0  0  0
   11.6410   39.7190   10.5510 C   0  0  0  0  0  0  0  0  0  0  0  0
   12.3560   38.9120    9.5130 C   0  0  0  0  0  0  0  0  0  0  0  0
   11.8690   38.8450    8.3640 O   0  0  0  0  0  0  0  0  0  0  0  0
   13.4090   38.3010    9.7960 O   0  0  0  0  0  1  0  0  0  0  0  0
   11.6650   41.1300   10.5360 N   0  0  0  0  0  0  0  0  0  0  0  0
   12.3120   42.0200    9.5670 C   0  0  0  0  0  0  0  0  0  0  0  0
   13.6920   41.5540    9.0850 C   0  0  0  0  0  0  0  0  0  0  0  0
   14.6780   41.1280   10.0100 C   0  0  0  0  0  0  0  0  0  0  0  0
   15.9440   40.7000    9.5730 C   0  0  0  0  0  0  0  0  0  0  0  0
   16.2480   40.6930    8.2020 C   0  0  0  0  0  0  0  0  0  0  0  0
   15.2870   41.1140    7.2640 C   0  0  0  0  0  0  0  0  0  0  0  0
   15.6100   41.1010    5.8910 C   0  0  0  0  0  0  0  0  0  0  0  0
   14.6650   41.5170    4.9360 C   0  0  0  0  0  0  0  0  0  0  0  0
   13.3930   41.9470    5.3530 C   0  0  0  0  0  0  0  0  0  0  0  0
   13.0640   41.9630    6.7220 C   0  0  0  0  0  0  0  0  0  0  0  0
   14.0040   41.5470    7.6980 C   0  0  0  0  0  0  0  0  0  0  0  0
   10.9430   41.6120   11.6200 C   0  0  0  0  0  0  0  0  0  0  0  0
   10.6760   42.9240   12.0630 C   0  0  0  0  0  0  0  0  0  0  0  0
    9.8920   43.1300   13.2110 C   0  0  0  0  0  0  0  0  0  0  0  0
    9.3780   42.0250   13.9100 C   0  0  0  0  0  0  0  0  0  0  0  0
    8.6190   42.2160   15.0150 F   0  0  0  0  0  0  0  0  0  0  0  0
    9.6520   40.7170   13.4640 C   0  0  0  0  0  0  0  0  0  0  0  0
   10.4440   40.4780   12.3150 C   0  0  0  0  0  0  0  0  0  0  0  0
    8.9453   34.7964   16.3065 H   0  0  0  0  0  0  0  0  0  0  0  0
    8.3088   33.7467   14.9951 H   0  0  0  0  0  0  0  0  0  0  0  0
   10.0373   34.2356   14.9951 H   0  0  0  0  0  0  0  0  0  0  0  0
    7.5910   35.7825   14.1618 H   0  0  0  0  0  0  0  0  0  0  0  0
    8.8863   36.7033   14.9952 H   0  0  0  0  0  0  0  0  0  0  0  0
    8.1421   38.8705   10.8541 H   0  0  0  0  0  0  0  0  0  0  0  0
    9.5814   38.5316    9.8342 H   0  0  0  0  0  0  0  0  0  0  0  0
    8.1923   37.3927    9.8342 H   0  0  0  0  0  0  0  0  0  0  0  0
   10.5598   37.8959   13.2171 H   0  0  0  0  0  0  0  0  0  0  0  0
   11.4748   37.2570   11.7829 H   0  0  0  0  0  0  0  0  0  0  0  0
   11.6543   42.1060    8.6894 H   0  0  0  0  0  0  0  0  0  0  0  0
   12.4725   42.9768   10.0853 H   0  0  0  0  0  0  0  0  0  0  0  0
   14.4492   41.1323   11.0859 H   0  0  0  0  0  0  0  0  0  0  0  0
   16.6962   40.3707   10.3049 H   0  0  0  0  0  0  0  0  0  0  0  0
   17.2386   40.3580    7.8608 H   0  0  0  0  0  0  0  0  0  0  0  0
   16.6053   40.7640    5.5658 H   0  0  0  0  0  0  0  0  0  0  0  0
   14.9203   41.5060    3.8661 H   0  0  0  0  0  0  0  0  0  0  0  0
   12.6524   42.2720    4.6074 H   0  0  0  0  0  0  0  0  0  0  0  0
   12.0663   42.3021    7.0376 H   0  0  0  0  0  0  0  0  0  0  0  0
   11.0808   43.7849   11.5107 H   0  0  0  0  0  0  0  0  0  0  0  0
    9.6818   44.1516   13.5606 H   0  0  0  0  0  0  0  0  0  0  0  0
    9.2413   39.8620   14.0211 H   0  0  0  0  0  0  0  0  0  0  0  0
  1  2  1  0
  2  3  1  0
  3  4  1  0
  4  5  2  0
  4  6  1  0
  6  7  1  0
  6  8  1  0
  8  9  1  0
  9 10  2  0
 10 11  1  0
 11 12  2  0
 11 13  1  0
 10 14  1  0
 14 15  1  0
 15 16  1  0
 16 17  2  0
 17 18  1  0
 18 19  2  0
 19 20  1  0
 20 21  2  0
 21 22  1  0
 22 23  2  0
 23 24  1  0
 24 25  2  0
 14 26  1  0
 26 27  2  0
 27 28  1  0
 28 29  2  0
 29 30  1  0
 29 31  1  0
 31 32  2  0
 32  9  1  0
 25 16  1  0
 32 26  1  0
 25 20  1  0
  1 33  1  0
  1 34  1  0
  1 35  1  0
  2 36  1  0
  2 37  1  0
  7 38  1  0
  7 39  1  0
  7 40  1  0
  8 41  1  0
  8 42  1  0
 15 43  1  0
 15 44  1  0
 17 45  1  0
 18 46  1  0
 19 47  1  0
 21 48  1  0
 22 49  1  0
 23 50  1  0
 24 51  1  0
 27 52  1  0
 28 53  1  0
 31 54  1  0
M  CHG  1  13  -1
M  END
>  <meeko>  (94) 
{"free_energy": -4.82, "intermolecular_energy": -7.21, "internal_energy": -1.65, "cluster_size": 4, "cluster_id": 201, "rank_in_cluster": 2}

$$$$

     RDKit          3D

 54 57  0  0  0  0  0  0  0  0999 V2000
    6.7900   34.6960    6.1150 C   0  0  0  0  0  0  0  0  0  0  0  0
    7.7260   35.1120    7.2520 C   0  0  0  0  0  0  0  0  0  0  0  0
    7.1750   36.2320    7.9260 O   0  0  0  0  0  0  0  0  0  0  0  0
    7.9890   37.1640    8.4670 C   0  0  0  0  0  0  0  0  0  0  0  0
    8.2750   38.2220    7.9060 O   0  0  0  0  0  0  0  0  0  0  0  0
    8.4350   36.7520    9.7300 N   0  0  0  0  0  0  0  0  0  0  0  0
    9.1660   35.4950    9.9270 C   0  0  0  0  0  0  0  0  0  0  0  0
    8.1650   37.5530   10.9310 C   0  0  0  0  0  0  0  0  0  0  0  0
    9.3450   37.5840   11.8750 C   0  0  0  0  0  0  0  0  0  0  0  0
    9.4800   36.9820   13.1130 C   0  0  0  0  0  0  0  0  0  0  0  0
    8.5240   36.1040   13.8570 C   0  0  0  0  0  0  0  0  0  0  0  0
    7.7780   36.6220   14.7160 O   0  0  0  0  0  0  0  0  0  0  0  0
    8.4850   34.8740   13.6370 O   0  0  0  0  0  1  0  0  0  0  0  0
   10.7320   37.3400   13.6580 N   0  0  0  0  0  0  0  0  0  0  0  0
   11.3160   36.9360   14.9400 C   0  0  0  0  0  0  0  0  0  0  0  0
   10.7170   35.6610   15.5480 C   0  0  0  0  0  0  0  0  0  0  0  0
   11.1420   34.3800   15.1150 C   0  0  0  0  0  0  0  0  0  0  0  0
   10.5960   33.2100   15.6690 C   0  0  0  0  0  0  0  0  0  0  0  0
    9.6130   33.2990   16.6670 C   0  0  0  0  0  0  0  0  0  0  0  0
    9.1730   34.5590   17.1140 C   0  0  0  0  0  0  0  0  0  0  0  0
    8.1840   34.6290   18.1170 C   0  0  0  0  0  0  0  0  0  0  0  0
    7.7290   35.8770   18.5780 C   0  0  0  0  0  0  0  0  0  0  0  0
    8.2630   37.0600   18.0360 C   0  0  0  0  0  0  0  0  0  0  0  0
    9.2500   36.9970   17.0340 C   0  0  0  0  0  0  0  0  0  0  0  0
    9.7200   35.7480   16.5580 C   0  0  0  0  0  0  0  0  0  0  0  0
   11.3970   38.1730   12.7680 C   0  0  0  0  0  0  0  0  0  0  0  0
   12.6530   38.8100   12.8360 C   0  0  0  0  0  0  0  0  0  0  0  0
   13.0940   39.6070   11.7670 C   0  0  0  0  0  0  0  0  0  0  0  0
   12.2800   39.7620   10.6320 C   0  0  0  0  0  0  0  0  0  0  0  0
   12.7010   40.5260    9.5950 F   0  0  0  0  0  0  0  0  0  0  0  0
   11.0250   39.1260   10.5720 C   0  0  0  0  0  0  0  0  0  0  0  0
   10.5500   38.3220   11.6370 C   0  0  0  0  0  0  0  0  0  0  0  0
    5.8616   34.2834    6.5367 H   0  0  0  0  0  0  0  0  0  0  0  0
    6.5530   35.5735    5.4955 H   0  0  0  0  0  0  0  0  0  0  0  0
    7.2826   33.9321    5.4955 H   0  0  0  0  0  0  0  0  0  0  0  0
    7.8394   34.2769    7.9589 H   0  0  0  0  0  0  0  0  0  0  0  0
    8.7110   35.3772    6.8404 H   0  0  0  0  0  0  0  0  0  0  0  0
    9.2787   35.3013   11.0039 H   0  0  0  0  0  0  0  0  0  0  0  0
    8.6073   34.6692    9.4624 H   0  0  0  0  0  0  0  0  0  0  0  0
   10.1601   35.5722    9.4624 H   0  0  0  0  0  0  0  0  0  0  0  0
    7.9298   38.5829   10.6242 H   0  0  0  0  0  0  0  0  0  0  0  0
    7.3202   37.0902   11.4622 H   0  0  0  0  0  0  0  0  0  0  0  0
   12.3926   36.7692   14.7879 H   0  0  0  0  0  0  0  0  0  0  0  0
   11.0979   37.7484   15.6488 H   0  0  0  0  0  0  0  0  0  0  0  0
   11.9114   34.3007   14.3329 H   0  0  0  0  0  0  0  0  0  0  0  0
   10.9388   32.2245   15.3207 H   0  0  0  0  0  0  0  0  0  0  0  0
    9.1859   32.3826   17.1004 H   0  0  0  0  0  0  0  0  0  0  0  0
    7.7668   33.7034   18.5404 H   0  0  0  0  0  0  0  0  0  0  0  0
    6.9575   35.9280   19.3604 H   0  0  0  0  0  0  0  0  0  0  0  0
    7.9085   38.0371   18.3960 H   0  0  0  0  0  0  0  0  0  0  0  0
    9.6609   37.9279   16.6160 H   0  0  0  0  0  0  0  0  0  0  0  0
   13.2871   38.6828   13.7258 H   0  0  0  0  0  0  0  0  0  0  0  0
   14.0721   40.1076   11.8179 H   0  0  0  0  0  0  0  0  0  0  0  0
   10.3989   39.2567    9.6771 H   0  0  0  0  0  0  0  0  0  0  0  0
  1  2  1  0
  2  3  1  0
  3  4  1  0
  4  5  2  0
  4  6  1  0
  6  7  1  0
  6  8  1  0
  8  9  1  0
  9 10  2  0
 10 11  1  0
 11 12  2  0
 11 13  1  0
 10 14  1  0
 14 15  1  0
 15 16  1  0
 16 17  2  0
 17 18  1  0
 18 19  2  0
 19 20  1  0
 20 21  2  0
 21 22  1  0
 22 23  2  0
 23 24  1  0
 24 25  2  0
 14 26  1  0
 26 27  2  0
 27 28  1  0
 28 29  2  0
 29 30  1  0
 29 31  1  0
 31 32  2  0
 32  9  1  0
 25 16  1  0
 32 26  1  0
 25 20  1  0
  1 33  1  0
  1 34  1  0
  1 35  1  0
  2 36  1  0
  2 37  1  0
  7 38  1  0
  7 39  1  0
  7 40  1  0
  8 41  1  0
  8 42  1  0
 15 43  1  0
 15 44  1  0
 17 45  1  0
 18 46  1  0
 19 47  1  0
 21 48  1  0
 22 49  1  0
 23 50  1  0
 24 51  1  0
 27 52  1  0
 28 53  1  0
 31 54  1  0
M  CHG  1  13  -1
M  END
>  <meeko>  (95) 
{"free_energy": -7.4, "intermolecular_energy": -9.78, "internal_energy": -1.18, "cluster_size": 109, "cluster_id": 6, "rank_in_cluster": 5}

$$$$

     RDKit          3D

 54 57  0  0  0  0  0  0  0  0999 V2000
    6.8600   37.7750    5.9560 C   0  0  0  0  0  0  0  0  0  0  0  0
    6.9970   38.5250    7.2830 C   0  0  0  0  0  0  0  0  0  0  0  0
    8.1610   38.0740    7.9560 O   0  0  0  0  0  0  0  0  0  0  0  0
    8.2080   36.8230    8.4600 C   0  0  0  0  0  0  0  0  0  0  0  0
    7.7040   35.8470    7.9010 O   0  0  0  0  0  0  0  0  0  0  0  0
    8.9050   36.8080    9.6760 N   0  0  0  0  0  0  0  0  0  0  0  0
   10.2990   36.3620    9.7710 C   0  0  0  0  0  0  0  0  0  0  0  0
    8.2570   37.2160   10.9300 C   0  0  0  0  0  0  0  0  0  0  0  0
    9.2600   37.5260   12.0160 C   0  0  0  0  0  0  0  0  0  0  0  0
    9.3590   36.9820   13.2850 C   0  0  0  0  0  0  0  0  0  0  0  0
    8.5350   35.9140   13.9320 C   0  0  0  0  0  0  0  0  0  0  0  0
    8.7390   34.7230   13.6140 O   0  0  0  0  0  0  0  0  0  0  0  0
    7.6460   36.2100   14.7590 O   0  0  0  0  0  1  0  0  0  0  0  0
   10.4110   37.6230   13.9730 N   0  0  0  0  0  0  0  0  0  0  0  0
   10.8920   37.3750   15.3350 C   0  0  0  0  0  0  0  0  0  0  0  0
   10.4050   36.0620   15.9620 C   0  0  0  0  0  0  0  0  0  0  0  0
   11.0290   34.8300   15.6430 C   0  0  0  0  0  0  0  0  0  0  0  0
   10.5860   33.6250   16.2150 C   0  0  0  0  0  0  0  0  0  0  0  0
    9.5090   33.6290   17.1160 C   0  0  0  0  0  0  0  0  0  0  0  0
    8.8720   34.8400   17.4480 C   0  0  0  0  0  0  0  0  0  0  0  0
    7.7910   34.8250   18.3540 C   0  0  0  0  0  0  0  0  0  0  0  0
    7.1400   36.0220   18.6990 C   0  0  0  0  0  0  0  0  0  0  0  0
    7.5680   37.2390   18.1390 C   0  0  0  0  0  0  0  0  0  0  0  0
    8.6460   37.2600   17.2330 C   0  0  0  0  0  0  0  0  0  0  0  0
    9.3140   36.0630   16.8740 C   0  0  0  0  0  0  0  0  0  0  0  0
   10.9850   38.5790   13.1450 C   0  0  0  0  0  0  0  0  0  0  0  0
   12.0420   39.4890   13.3520 C   0  0  0  0  0  0  0  0  0  0  0  0
   12.4320   40.3570   12.3180 C   0  0  0  0  0  0  0  0  0  0  0  0
   11.7650   40.3110   11.0810 C   0  0  0  0  0  0  0  0  0  0  0  0
   12.1380   41.1420   10.0800 F   0  0  0  0  0  0  0  0  0  0  0  0
   10.7070   39.4020   10.8840 C   0  0  0  0  0  0  0  0  0  0  0  0
   10.2870   38.5200   11.9090 C   0  0  0  0  0  0  0  0  0  0  0  0
    6.6656   36.7107    6.1547 H   0  0  0  0  0  0  0  0  0  0  0  0
    6.0244   38.1990    5.3797 H   0  0  0  0  0  0  0  0  0  0  0  0
    7.7915   37.8762    5.3797 H   0  0  0  0  0  0  0  0  0  0  0  0
    7.0795   39.6045    7.0886 H   0  0  0  0  0  0  0  0  0  0  0  0
    6.1120   38.3348    7.9079 H   0  0  0  0  0  0  0  0  0  0  0  0
   10.5835   36.2710   10.8297 H   0  0  0  0  0  0  0  0  0  0  0  0
   10.4058   35.3848    9.2773 H   0  0  0  0  0  0  0  0  0  0  0  0
   10.9532   37.0957    9.2773 H   0  0  0  0  0  0  0  0  0  0  0  0
    7.6516   38.1146   10.7399 H   0  0  0  0  0  0  0  0  0  0  0  0
    7.6330   36.3786   11.2757 H   0  0  0  0  0  0  0  0  0  0  0  0
   11.9916   37.3552   15.3110 H   0  0  0  0  0  0  0  0  0  0  0  0
   10.4851   38.1847   15.9586 H   0  0  0  0  0  0  0  0  0  0  0  0
   11.8726   34.8167   14.9372 H   0  0  0  0  0  0  0  0  0  0  0  0
   11.0832   32.6784   15.9567 H   0  0  0  0  0  0  0  0  0  0  0  0
    9.1627   32.6854   17.5628 H   0  0  0  0  0  0  0  0  0  0  0  0
    7.4563   33.8731   18.7921 H   0  0  0  0  0  0  0  0  0  0  0  0
    6.2972   36.0069   19.4058 H   0  0  0  0  0  0  0  0  0  0  0  0
    7.0597   38.1764   18.4092 H   0  0  0  0  0  0  0  0  0  0  0  0
    8.9731   38.2164   16.7991 H   0  0  0  0  0  0  0  0  0  0  0  0
   12.5606   39.5194   14.3216 H   0  0  0  0  0  0  0  0  0  0  0  0
   13.2554   41.0692   12.4756 H   0  0  0  0  0  0  0  0  0  0  0  0
   10.1950   39.3768    9.9108 H   0  0  0  0  0  0  0  0  0  0  0  0
  1  2  1  0
  2  3  1  0
  3  4  1  0
  4  5  2  0
  4  6  1  0
  6  7  1  0
  6  8  1  0
  8  9  1  0
  9 10  2  0
 10 11  1  0
 11 12  2  0
 11 13  1  0
 10 14  1  0
 14 15  1  0
 15 16  1  0
 16 17  2  0
 17 18  1  0
 18 19  2  0
 19 20  1  0
 20 21  2  0
 21 22  1  0
 22 23  2  0
 23 24  1  0
 24 25  2  0
 14 26  1  0
 26 27  2  0
 27 28  1  0
 28 29  2  0
 29 30  1  0
 29 31  1  0
 31 32  2  0
 32  9  1  0
 25 16  1  0
 32 26  1  0
 25 20  1  0
  1 33  1  0
  1 34  1  0
  1 35  1  0
  2 36  1  0
  2 37  1  0
  7 38  1  0
  7 39  1  0
  7 40  1  0
  8 41  1  0
  8 42  1  0
 15 43  1  0
 15 44  1  0
 17 45  1  0
 18 46  1  0
 19 47  1  0
 21 48  1  0
 22 49  1  0
 23 50  1  0
 24 51  1  0
 27 52  1  0
 28 53  1  0
 31 54  1  0
M  CHG  1  13  -1
M  END
>  <meeko>  (96) 
{"free_energy": -6.94, "intermolecular_energy": -9.32, "internal_energy": -0.97, "cluster_size": 109, "cluster_id": 6, "rank_in_cluster": 13}

$$$$

     RDKit          3D

 54 57  0  0  0  0  0  0  0  0999 V2000
    6.7950   35.0480    6.4860 C   0  0  0  0  0  0  0  0  0  0  0  0
    8.1330   34.8780    7.2110 C   0  0  0  0  0  0  0  0  0  0  0  0
    8.5150   36.1170    7.7840 O   0  0  0  0  0  0  0  0  0  0  0  0
    8.9220   36.1710    9.0710 C   0  0  0  0  0  0  0  0  0  0  0  0
    9.2950   35.1820    9.7050 O   0  0  0  0  0  0  0  0  0  0  0  0
    8.8620   37.4850    9.5510 N   0  0  0  0  0  0  0  0  0  0  0  0
    9.2580   38.6350    8.7300 C   0  0  0  0  0  0  0  0  0  0  0  0
    8.4230   37.7760   10.9220 C   0  0  0  0  0  0  0  0  0  0  0  0
    9.5660   37.7350   11.9090 C   0  0  0  0  0  0  0  0  0  0  0  0
    9.5870   37.2080   13.1890 C   0  0  0  0  0  0  0  0  0  0  0  0
    8.5090   36.5010   13.9480 C   0  0  0  0  0  0  0  0  0  0  0  0
    8.2130   35.3320   13.6210 O   0  0  0  0  0  0  0  0  0  0  0  0
    7.9030   37.0770   14.8780 O   0  0  0  0  0  1  0  0  0  0  0  0
   10.8540   37.4560   13.7610 N   0  0  0  0  0  0  0  0  0  0  0  0
   11.3430   37.0760   15.0890 C   0  0  0  0  0  0  0  0  0  0  0  0
   10.8030   35.7400   15.6180 C   0  0  0  0  0  0  0  0  0  0  0  0
   11.3050   34.5090   15.1270 C   0  0  0  0  0  0  0  0  0  0  0  0
   10.8130   33.2840   15.6080 C   0  0  0  0  0  0  0  0  0  0  0  0
    9.8080   33.2660   16.5880 C   0  0  0  0  0  0  0  0  0  0  0  0
    9.2920   34.4760   17.0910 C   0  0  0  0  0  0  0  0  0  0  0  0
    8.2830   34.4390   18.0750 C   0  0  0  0  0  0  0  0  0  0  0  0
    7.7520   35.6350   18.5910 C   0  0  0  0  0  0  0  0  0  0  0  0
    8.2320   36.8720   18.1230 C   0  0  0  0  0  0  0  0  0  0  0  0
    9.2390   36.9150   17.1400 C   0  0  0  0  0  0  0  0  0  0  0  0
    9.7850   35.7200   16.6090 C   0  0  0  0  0  0  0  0  0  0  0  0
   11.6430   38.1420   12.8470 C   0  0  0  0  0  0  0  0  0  0  0  0
   12.9620   38.6330   12.9260 C   0  0  0  0  0  0  0  0  0  0  0  0
   13.5300   39.2970   11.8260 C   0  0  0  0  0  0  0  0  0  0  0  0
   12.7780   39.4670   10.6510 C   0  0  0  0  0  0  0  0  0  0  0  0
   13.3210   40.1030    9.5860 F   0  0  0  0  0  0  0  0  0  0  0  0
   11.4600   38.9780   10.5800 C   0  0  0  0  0  0  0  0  0  0  0  0
   10.8580   38.3100   11.6750 C   0  0  0  0  0  0  0  0  0  0  0  0
    5.9875   35.1506    7.2259 H   0  0  0  0  0  0  0  0  0  0  0  0
    6.8314   35.9487    5.8557 H   0  0  0  0  0  0  0  0  0  0  0  0
    6.6050   34.1668    5.8557 H   0  0  0  0  0  0  0  0  0  0  0  0
    8.0281   34.1230    8.0041 H   0  0  0  0  0  0  0  0  0  0  0  0
    8.9013   34.5500    6.4954 H   0  0  0  0  0  0  0  0  0  0  0  0
    9.5459   39.4710    9.3844 H   0  0  0  0  0  0  0  0  0  0  0  0
   10.1117   38.3556    8.0951 H   0  0  0  0  0  0  0  0  0  0  0  0
    8.4133   38.9405    8.0951 H   0  0  0  0  0  0  0  0  0  0  0  0
    7.9720   38.7791   10.9440 H   0  0  0  0  0  0  0  0  0  0  0  0
    7.6967   37.0035   11.2147 H   0  0  0  0  0  0  0  0  0  0  0  0
   12.4399   37.0070   15.0425 H   0  0  0  0  0  0  0  0  0  0  0  0
   10.9848   37.8504   15.7832 H   0  0  0  0  0  0  0  0  0  0  0  0
   12.0915   34.5126   14.3579 H   0  0  0  0  0  0  0  0  0  0  0  0
   11.2156   32.3382   15.2163 H   0  0  0  0  0  0  0  0  0  0  0  0
    9.4233   32.3062   16.9632 H   0  0  0  0  0  0  0  0  0  0  0  0
    7.9096   33.4711   18.4406 H   0  0  0  0  0  0  0  0  0  0  0  0
    6.9641   35.6033   19.3579 H   0  0  0  0  0  0  0  0  0  0  0  0
    7.8192   37.8084   18.5264 H   0  0  0  0  0  0  0  0  0  0  0  0
    9.6062   37.8874   16.7800 H   0  0  0  0  0  0  0  0  0  0  0  0
   13.5460   38.4963   13.8481 H   0  0  0  0  0  0  0  0  0  0  0  0
   14.5587   39.6821   11.8841 H   0  0  0  0  0  0  0  0  0  0  0  0
   10.8842   39.1176    9.6532 H   0  0  0  0  0  0  0  0  0  0  0  0
  1  2  1  0
  2  3  1  0
  3  4  1  0
  4  5  2  0
  4  6  1  0
  6  7  1  0
  6  8  1  0
  8  9  1  0
  9 10  2  0
 10 11  1  0
 11 12  2  0
 11 13  1  0
 10 14  1  0
 14 15  1  0
 15 16  1  0
 16 17  2  0
 17 18  1  0
 18 19  2  0
 19 20  1  0
 20 21  2  0
 21 22  1  0
 22 23  2  0
 23 24  1  0
 24 25  2  0
 14 26  1  0
 26 27  2  0
 27 28  1  0
 28 29  2  0
 29 30  1  0
 29 31  1  0
 31 32  2  0
 32  9  1  0
 25 16  1  0
 32 26  1  0
 25 20  1  0
  1 33  1  0
  1 34  1  0
  1 35  1  0
  2 36  1  0
  2 37  1  0
  7 38  1  0
  7 39  1  0
  7 40  1  0
  8 41  1  0
  8 42  1  0
 15 43  1  0
 15 44  1  0
 17 45  1  0
 18 46  1  0
 19 47  1  0
 21 48  1  0
 22 49  1  0
 23 50  1  0
 24 51  1  0
 27 52  1  0
 28 53  1  0
 31 54  1  0
M  CHG  1  13  -1
M  END
>  <meeko>  (97) 
{"free_energy": -6.66, "intermolecular_energy": -9.05, "internal_energy": -1.2, "cluster_size": 109, "cluster_id": 6, "rank_in_cluster": 28}

$$$$

     RDKit          3D

 54 57  0  0  0  0  0  0  0  0999 V2000
    6.0140   36.0160   18.2050 C   0  0  0  0  0  0  0  0  0  0  0  0
    7.2800   35.3940   17.6110 C   0  0  0  0  0  0  0  0  0  0  0  0
    7.2330   35.5000   16.1970 O   0  0  0  0  0  0  0  0  0  0  0  0
    8.2660   36.0500   15.5250 C   0  0  0  0  0  0  0  0  0  0  0  0
    8.5270   37.2540   15.5510 O   0  0  0  0  0  0  0  0  0  0  0  0
    8.9750   35.0670   14.8220 N   0  0  0  0  0  0  0  0  0  0  0  0
    8.5010   33.6820   14.7270 C   0  0  0  0  0  0  0  0  0  0  0  0
   10.2530   35.3720   14.1650 C   0  0  0  0  0  0  0  0  0  0  0  0
   10.1830   36.6320   13.3350 C   0  0  0  0  0  0  0  0  0  0  0  0
   10.7160   37.8800   13.6060 C   0  0  0  0  0  0  0  0  0  0  0  0
   11.5380   38.3330   14.7710 C   0  0  0  0  0  0  0  0  0  0  0  0
   12.6050   37.7330   15.0230 O   0  0  0  0  0  0  0  0  0  0  0  0
   11.1550   39.2820   15.4900 O   0  0  0  0  0  1  0  0  0  0  0  0
   10.3430   38.7680   12.5740 N   0  0  0  0  0  0  0  0  0  0  0  0
   10.6810   40.1860   12.4270 C   0  0  0  0  0  0  0  0  0  0  0  0
   11.3830   40.5480   11.1110 C   0  0  0  0  0  0  0  0  0  0  0  0
   10.9320   41.6360   10.3230 C   0  0  0  0  0  0  0  0  0  0  0  0
   11.5720   41.9710    9.1170 C   0  0  0  0  0  0  0  0  0  0  0  0
   12.6750   41.2230    8.6760 C   0  0  0  0  0  0  0  0  0  0  0  0
   13.1420   40.1370    9.4410 C   0  0  0  0  0  0  0  0  0  0  0  0
   14.2510   39.3960    8.9820 C   0  0  0  0  0  0  0  0  0  0  0  0
   14.7340   38.3070    9.7290 C   0  0  0  0  0  0  0  0  0  0  0  0
   14.1080   37.9570   10.9380 C   0  0  0  0  0  0  0  0  0  0  0  0
   13.0000   38.6920   11.4010 C   0  0  0  0  0  0  0  0  0  0  0  0
   12.5000   39.7920   10.6620 C   0  0  0  0  0  0  0  0  0  0  0  0
    9.5710   38.0870   11.6420 C   0  0  0  0  0  0  0  0  0  0  0  0
    8.9460   38.5100   10.4510 C   0  0  0  0  0  0  0  0  0  0  0  0
    8.2170   37.5920    9.6770 C   0  0  0  0  0  0  0  0  0  0  0  0
    8.1150   36.2540   10.0960 C   0  0  0  0  0  0  0  0  0  0  0  0
    7.4170   35.3630    9.3530 F   0  0  0  0  0  0  0  0  0  0  0  0
    8.7390   35.8400   11.2890 C   0  0  0  0  0  0  0  0  0  0  0  0
    9.4750   36.7440   12.0930 C   0  0  0  0  0  0  0  0  0  0  0  0
    6.0720   35.9875   19.3031 H   0  0  0  0  0  0  0  0  0  0  0  0
    5.9261   37.0599   17.8694 H   0  0  0  0  0  0  0  0  0  0  0  0
    5.1340   35.4476   17.8694 H   0  0  0  0  0  0  0  0  0  0  0  0
    8.1645   35.9266   17.9906 H   0  0  0  0  0  0  0  0  0  0  0  0
    7.3417   34.3345   17.9002 H   0  0  0  0  0  0  0  0  0  0  0  0
    8.3608   33.2723   15.7382 H   0  0  0  0  0  0  0  0  0  0  0  0
    7.5436   33.6584   14.1858 H   0  0  0  0  0  0  0  0  0  0  0  0
    9.2432   33.0768   14.1858 H   0  0  0  0  0  0  0  0  0  0  0  0
   11.0264   35.4991   14.9369 H   0  0  0  0  0  0  0  0  0  0  0  0
   10.4930   34.5369   13.4905 H   0  0  0  0  0  0  0  0  0  0  0  0
    9.7496   40.7679   12.4891 H   0  0  0  0  0  0  0  0  0  0  0  0
   11.3935   40.4192   13.2320 H   0  0  0  0  0  0  0  0  0  0  0  0
   10.0680   42.2274   10.6601 H   0  0  0  0  0  0  0  0  0  0  0  0
   11.2084   42.8195    8.5188 H   0  0  0  0  0  0  0  0  0  0  0  0
   13.1749   41.4855    7.7320 H   0  0  0  0  0  0  0  0  0  0  0  0
   14.7400   39.6712    8.0359 H   0  0  0  0  0  0  0  0  0  0  0  0
   15.5989   37.7308    9.3685 H   0  0  0  0  0  0  0  0  0  0  0  0
   14.4851   37.1061   11.5243 H   0  0  0  0  0  0  0  0  0  0  0  0
   12.5170   38.4086   12.3478 H   0  0  0  0  0  0  0  0  0  0  0  0
    9.0292   39.5582   10.1281 H   0  0  0  0  0  0  0  0  0  0  0  0
    7.7282   37.9186    8.7473 H   0  0  0  0  0  0  0  0  0  0  0  0
    8.6525   34.7895   11.6036 H   0  0  0  0  0  0  0  0  0  0  0  0
  1  2  1  0
  2  3  1  0
  3  4  1  0
  4  5  2  0
  4  6  1  0
  6  7  1  0
  6  8  1  0
  8  9  1  0
  9 10  2  0
 10 11  1  0
 11 12  2  0
 11 13  1  0
 10 14  1  0
 14 15  1  0
 15 16  1  0
 16 17  2  0
 17 18  1  0
 18 19  2  0
 19 20  1  0
 20 21  2  0
 21 22  1  0
 22 23  2  0
 23 24  1  0
 24 25  2  0
 14 26  1  0
 26 27  2  0
 27 28  1  0
 28 29  2  0
 29 30  1  0
 29 31  1  0
 31 32  2  0
 32  9  1  0
 25 16  1  0
 32 26  1  0
 25 20  1  0
  1 33  1  0
  1 34  1  0
  1 35  1  0
  2 36  1  0
  2 37  1  0
  7 38  1  0
  7 39  1  0
  7 40  1  0
  8 41  1  0
  8 42  1  0
 15 43  1  0
 15 44  1  0
 17 45  1  0
 18 46  1  0
 19 47  1  0
 21 48  1  0
 22 49  1  0
 23 50  1  0
 24 51  1  0
 27 52  1  0
 28 53  1  0
 31 54  1  0
M  CHG  1  13  -1
M  END
>  <meeko>  (98) 
{"free_energy": -6.16, "intermolecular_energy": -8.55, "internal_energy": -2.01, "cluster_size": 251, "cluster_id": 26, "rank_in_cluster": 49}

$$$$

     RDKit          3D

 54 57  0  0  0  0  0  0  0  0999 V2000
   14.8990   34.8950    9.6500 C   0  0  0  0  0  0  0  0  0  0  0  0
   14.2270   36.1440   10.2260 C   0  0  0  0  0  0  0  0  0  0  0  0
   15.1590   37.2130   10.2400 O   0  0  0  0  0  0  0  0  0  0  0  0
   14.7280   38.4880   10.1420 C   0  0  0  0  0  0  0  0  0  0  0  0
   14.5620   39.0670    9.0670 O   0  0  0  0  0  0  0  0  0  0  0  0
   14.5010   39.0290   11.4140 N   0  0  0  0  0  0  0  0  0  0  0  0
   15.5150   38.9850   12.4730 C   0  0  0  0  0  0  0  0  0  0  0  0
   13.2140   39.6470   11.7610 C   0  0  0  0  0  0  0  0  0  0  0  0
   12.3370   38.7240   12.5740 C   0  0  0  0  0  0  0  0  0  0  0  0
   11.2760   37.9420   12.1530 C   0  0  0  0  0  0  0  0  0  0  0  0
   10.7150   37.7560   10.7780 C   0  0  0  0  0  0  0  0  0  0  0  0
    9.4780   37.6370   10.6460 O   0  0  0  0  0  0  0  0  0  0  0  0
   11.4710   37.7020    9.7840 O   0  0  0  0  0  1  0  0  0  0  0  0
   10.7150   37.2950   13.2740 N   0  0  0  0  0  0  0  0  0  0  0  0
    9.5840   36.3630   13.3170 C   0  0  0  0  0  0  0  0  0  0  0  0
    9.6220   35.3560   14.4740 C   0  0  0  0  0  0  0  0  0  0  0  0
   10.5710   34.3030   14.4890 C   0  0  0  0  0  0  0  0  0  0  0  0
   10.6090   33.3780   15.5460 C   0  0  0  0  0  0  0  0  0  0  0  0
    9.6970   33.4880   16.6080 C   0  0  0  0  0  0  0  0  0  0  0  0
    8.7440   34.5240   16.6150 C   0  0  0  0  0  0  0  0  0  0  0  0
    7.8350   34.6180   17.6900 C   0  0  0  0  0  0  0  0  0  0  0  0
    6.8740   35.6450   17.7180 C   0  0  0  0  0  0  0  0  0  0  0  0
    6.8210   36.5810   16.6700 C   0  0  0  0  0  0  0  0  0  0  0  0
    7.7250   36.4910   15.5940 C   0  0  0  0  0  0  0  0  0  0  0  0
    8.6990   35.4640   15.5500 C   0  0  0  0  0  0  0  0  0  0  0  0
   11.4170   37.6640   14.4140 C   0  0  0  0  0  0  0  0  0  0  0  0
   11.2550   37.3160   15.7710 C   0  0  0  0  0  0  0  0  0  0  0  0
   12.1310   37.8380   16.7380 C   0  0  0  0  0  0  0  0  0  0  0  0
   13.1660   38.7040   16.3440 C   0  0  0  0  0  0  0  0  0  0  0  0
   14.0160   39.2080   17.2710 F   0  0  0  0  0  0  0  0  0  0  0  0
   13.3190   39.0500   14.9880 C   0  0  0  0  0  0  0  0  0  0  0  0
   12.4480   38.5450   13.9920 C   0  0  0  0  0  0  0  0  0  0  0  0
   15.2449   34.2522   10.4729 H   0  0  0  0  0  0  0  0  0  0  0  0
   14.1766   34.3421    9.0316 H   0  0  0  0  0  0  0  0  0  0  0  0
   15.7584   35.1932    9.0316 H   0  0  0  0  0  0  0  0  0  0  0  0
   13.3634   36.4175    9.6021 H   0  0  0  0  0  0  0  0  0  0  0  0
   13.8855   35.9392   11.2514 H   0  0  0  0  0  0  0  0  0  0  0  0
   15.0204   39.0065   13.4553 H   0  0  0  0  0  0  0  0  0  0  0  0
   16.1036   38.0605   12.3789 H   0  0  0  0  0  0  0  0  0  0  0  0
   16.1814   39.8551   12.3789 H   0  0  0  0  0  0  0  0  0  0  0  0
   13.4054   40.5591   12.3453 H   0  0  0  0  0  0  0  0  0  0  0  0
   12.6858   39.8748   10.8234 H   0  0  0  0  0  0  0  0  0  0  0  0
    8.6590   36.9516   13.4063 H   0  0  0  0  0  0  0  0  0  0  0  0
    9.6354   35.7717   12.3908 H   0  0  0  0  0  0  0  0  0  0  0  0
   11.2885   34.2086   13.6606 H   0  0  0  0  0  0  0  0  0  0  0  0
   11.3531   32.5678   15.5415 H   0  0  0  0  0  0  0  0  0  0  0  0
    9.7273   32.7638   17.4354 H   0  0  0  0  0  0  0  0  0  0  0  0
    7.8779   33.8854   18.5094 H   0  0  0  0  0  0  0  0  0  0  0  0
    6.1662   35.7156   18.5571 H   0  0  0  0  0  0  0  0  0  0  0  0
    6.0713   37.3857   16.6907 H   0  0  0  0  0  0  0  0  0  0  0  0
    7.6740   37.2271   14.7781 H   0  0  0  0  0  0  0  0  0  0  0  0
   10.4439   36.6368   16.0722 H   0  0  0  0  0  0  0  0  0  0  0  0
   12.0075   37.5704   17.7978 H   0  0  0  0  0  0  0  0  0  0  0  0
   14.1340   39.7283   14.6953 H   0  0  0  0  0  0  0  0  0  0  0  0
  1  2  1  0
  2  3  1  0
  3  4  1  0
  4  5  2  0
  4  6  1  0
  6  7  1  0
  6  8  1  0
  8  9  1  0
  9 10  2  0
 10 11  1  0
 11 12  2  0
 11 13  1  0
 10 14  1  0
 14 15  1  0
 15 16  1  0
 16 17  2  0
 17 18  1  0
 18 19  2  0
 19 20  1  0
 20 21  2  0
 21 22  1  0
 22 23  2  0
 23 24  1  0
 24 25  2  0
 14 26  1  0
 26 27  2  0
 27 28  1  0
 28 29  2  0
 29 30  1  0
 29 31  1  0
 31 32  2  0
 32  9  1  0
 25 16  1  0
 32 26  1  0
 25 20  1  0
  1 33  1  0
  1 34  1  0
  1 35  1  0
  2 36  1  0
  2 37  1  0
  7 38  1  0
  7 39  1  0
  7 40  1  0
  8 41  1  0
  8 42  1  0
 15 43  1  0
 15 44  1  0
 17 45  1  0
 18 46  1  0
 19 47  1  0
 21 48  1  0
 22 49  1  0
 23 50  1  0
 24 51  1  0
 27 52  1  0
 28 53  1  0
 31 54  1  0
M  CHG  1  13  -1
M  END
>  <meeko>  (99) 
{"free_energy": -5.57, "intermolecular_energy": -7.96, "internal_energy": -1.81, "cluster_size": 30, "cluster_id": 91, "rank_in_cluster": 2}

$$$$

     RDKit          3D

 54 57  0  0  0  0  0  0  0  0999 V2000
    7.8900   42.2600   19.1750 C   0  0  0  0  0  0  0  0  0  0  0  0
    8.6620   43.2940   18.3520 C   0  0  0  0  0  0  0  0  0  0  0  0
    8.1150   43.3540   17.0450 O   0  0  0  0  0  0  0  0  0  0  0  0
    8.8410   42.9310   15.9880 C   0  0  0  0  0  0  0  0  0  0  0  0
    8.3890   42.2030   15.1030 O   0  0  0  0  0  0  0  0  0  0  0  0
   10.1440   43.4410   16.0520 N   0  0  0  0  0  0  0  0  0  0  0  0
   10.4930   44.7630   15.5190 C   0  0  0  0  0  0  0  0  0  0  0  0
   11.2410   42.6570   16.6360 C   0  0  0  0  0  0  0  0  0  0  0  0
   10.9640   41.1720   16.6010 C   0  0  0  0  0  0  0  0  0  0  0  0
   10.9030   40.2770   17.6550 C   0  0  0  0  0  0  0  0  0  0  0  0
   11.0570   40.5210   19.1230 C   0  0  0  0  0  0  0  0  0  0  0  0
   10.0650   40.3560   19.8660 O   0  0  0  0  0  0  0  0  0  0  0  0
   12.1510   40.9010   19.5950 O   0  0  0  0  0  1  0  0  0  0  0  0
   10.6820   38.9830   17.1390 N   0  0  0  0  0  0  0  0  0  0  0  0
   10.5360   37.7230   17.8740 C   0  0  0  0  0  0  0  0  0  0  0  0
    9.3410   36.8610   17.4460 C   0  0  0  0  0  0  0  0  0  0  0  0
    8.0180   37.2290   17.7970 C   0  0  0  0  0  0  0  0  0  0  0  0
    6.9200   36.4430   17.4070 C   0  0  0  0  0  0  0  0  0  0  0  0
    7.1250   35.2720   16.6600 C   0  0  0  0  0  0  0  0  0  0  0  0
    8.4290   34.8840   16.3000 C   0  0  0  0  0  0  0  0  0  0  0  0
    8.6160   33.7050   15.5490 C   0  0  0  0  0  0  0  0  0  0  0  0
    9.9100   33.2980   15.1790 C   0  0  0  0  0  0  0  0  0  0  0  0
   11.0210   34.0720   15.5580 C   0  0  0  0  0  0  0  0  0  0  0  0
   10.8420   35.2500   16.3080 C   0  0  0  0  0  0  0  0  0  0  0  0
    9.5450   35.6740   16.6900 C   0  0  0  0  0  0  0  0  0  0  0  0
   10.6010   39.0490   15.7540 C   0  0  0  0  0  0  0  0  0  0  0  0
   10.4070   38.0530   14.7750 C   0  0  0  0  0  0  0  0  0  0  0  0
   10.3570   38.4060   13.4160 C   0  0  0  0  0  0  0  0  0  0  0  0
   10.4990   39.7530   13.0410 C   0  0  0  0  0  0  0  0  0  0  0  0
   10.4480   40.1010   11.7330 F   0  0  0  0  0  0  0  0  0  0  0  0
   10.6970   40.7420   14.0240 C   0  0  0  0  0  0  0  0  0  0  0  0
   10.7580   40.4160   15.4010 C   0  0  0  0  0  0  0  0  0  0  0  0
    8.0387   42.4591   20.2466 H   0  0  0  0  0  0  0  0  0  0  0  0
    6.8185   42.3262   18.9350 H   0  0  0  0  0  0  0  0  0  0  0  0
    8.2579   41.2515   18.9350 H   0  0  0  0  0  0  0  0  0  0  0  0
    8.5795   44.2809   18.8308 H   0  0  0  0  0  0  0  0  0  0  0  0
    9.7217   43.0042   18.2956 H   0  0  0  0  0  0  0  0  0  0  0  0
   10.6763   45.4575   16.3521 H   0  0  0  0  0  0  0  0  0  0  0  0
   11.4005   44.6820   14.9027 H   0  0  0  0  0  0  0  0  0  0  0  0
    9.6637   45.1405   14.9027 H   0  0  0  0  0  0  0  0  0  0  0  0
   12.1616   42.8589   16.0688 H   0  0  0  0  0  0  0  0  0  0  0  0
   11.3456   42.9559   17.6894 H   0  0  0  0  0  0  0  0  0  0  0  0
   11.4529   37.1333   17.7271 H   0  0  0  0  0  0  0  0  0  0  0  0
   10.3586   37.9970   18.9245 H   0  0  0  0  0  0  0  0  0  0  0  0
    7.8479   38.1438   18.3837 H   0  0  0  0  0  0  0  0  0  0  0  0
    5.9001   36.7453   17.6870 H   0  0  0  0  0  0  0  0  0  0  0  0
    6.2652   34.6570   16.3557 H   0  0  0  0  0  0  0  0  0  0  0  0
    7.7459   33.1013   15.2515 H   0  0  0  0  0  0  0  0  0  0  0  0
   10.0527   32.3769   14.5948 H   0  0  0  0  0  0  0  0  0  0  0  0
   12.0338   33.7560   15.2674 H   0  0  0  0  0  0  0  0  0  0  0  0
   11.7181   35.8474   16.6005 H   0  0  0  0  0  0  0  0  0  0  0  0
   10.2949   37.0006   15.0749 H   0  0  0  0  0  0  0  0  0  0  0  0
   10.2074   37.6317   12.6491 H   0  0  0  0  0  0  0  0  0  0  0  0
   10.8068   41.7920   13.7151 H   0  0  0  0  0  0  0  0  0  0  0  0
  1  2  1  0
  2  3  1  0
  3  4  1  0
  4  5  2  0
  4  6  1  0
  6  7  1  0
  6  8  1  0
  8  9  1  0
  9 10  2  0
 10 11  1  0
 11 12  2  0
 11 13  1  0
 10 14  1  0
 14 15  1  0
 15 16  1  0
 16 17  2  0
 17 18  1  0
 18 19  2  0
 19 20  1  0
 20 21  2  0
 21 22  1  0
 22 23  2  0
 23 24  1  0
 24 25  2  0
 14 26  1  0
 26 27  2  0
 27 28  1  0
 28 29  2  0
 29 30  1  0
 29 31  1  0
 31 32  2  0
 32  9  1  0
 25 16  1  0
 32 26  1  0
 25 20  1  0
  1 33  1  0
  1 34  1  0
  1 35  1  0
  2 36  1  0
  2 37  1  0
  7 38  1  0
  7 39  1  0
  7 40  1  0
  8 41  1  0
  8 42  1  0
 15 43  1  0
 15 44  1  0
 17 45  1  0
 18 46  1  0
 19 47  1  0
 21 48  1  0
 22 49  1  0
 23 50  1  0
 24 51  1  0
 27 52  1  0
 28 53  1  0
 31 54  1  0
M  CHG  1  13  -1
M  END
>  <meeko>  (100) 
{"free_energy": -4.22, "intermolecular_energy": -6.6, "internal_energy": -2.19, "cluster_size": 12, "cluster_id": 149, "rank_in_cluster": 5}

$$$$

     RDKit          3D

 54 57  0  0  0  0  0  0  0  0999 V2000
   15.6750   39.9970    7.6430 C   0  0  0  0  0  0  0  0  0  0  0  0
   15.4410   39.3220    8.9970 C   0  0  0  0  0  0  0  0  0  0  0  0
   15.4530   40.3070   10.0170 O   0  0  0  0  0  0  0  0  0  0  0  0
   15.1760   39.9620   11.2930 C   0  0  0  0  0  0  0  0  0  0  0  0
   16.0360   39.6130   12.1030 O   0  0  0  0  0  0  0  0  0  0  0  0
   13.8010   40.0680   11.5430 N   0  0  0  0  0  0  0  0  0  0  0  0
   12.9960   38.9190   11.9730 C   0  0  0  0  0  0  0  0  0  0  0  0
   13.0890   41.3380   11.3560 C   0  0  0  0  0  0  0  0  0  0  0  0
   11.6300   41.1330   11.0210 C   0  0  0  0  0  0  0  0  0  0  0  0
   11.0680   40.2880   10.0800 C   0  0  0  0  0  0  0  0  0  0  0  0
   11.7290   39.3180    9.1530 C   0  0  0  0  0  0  0  0  0  0  0  0
   12.6330   39.7320    8.3960 O   0  0  0  0  0  0  0  0  0  0  0  0
   11.3700   38.1200    9.1230 O   0  0  0  0  0  1  0  0  0  0  0  0
    9.6690   40.4800   10.0750 N   0  0  0  0  0  0  0  0  0  0  0  0
    8.6600   39.8030    9.2560 C   0  0  0  0  0  0  0  0  0  0  0  0
    8.5140   38.2990    9.5240 C   0  0  0  0  0  0  0  0  0  0  0  0
    8.0720   37.4190    8.5050 C   0  0  0  0  0  0  0  0  0  0  0  0
    7.9370   36.0410    8.7460 C   0  0  0  0  0  0  0  0  0  0  0  0
    8.2400   35.5170   10.0120 C   0  0  0  0  0  0  0  0  0  0  0  0
    8.6800   36.3700   11.0420 C   0  0  0  0  0  0  0  0  0  0  0  0
    8.9790   35.8270   12.3080 C   0  0  0  0  0  0  0  0  0  0  0  0
    9.4200   36.6600   13.3520 C   0  0  0  0  0  0  0  0  0  0  0  0
    9.5620   38.0420   13.1300 C   0  0  0  0  0  0  0  0  0  0  0  0
    9.2640   38.5910   11.8680 C   0  0  0  0  0  0  0  0  0  0  0  0
    8.8200   37.7660   10.8060 C   0  0  0  0  0  0  0  0  0  0  0  0
    9.3370   41.4470   11.0150 C   0  0  0  0  0  0  0  0  0  0  0  0
    8.0980   42.0070   11.3890 C   0  0  0  0  0  0  0  0  0  0  0  0
    8.0470   42.9850   12.3960 C   0  0  0  0  0  0  0  0  0  0  0  0
    9.2330   43.3980   13.0270 C   0  0  0  0  0  0  0  0  0  0  0  0
    9.1900   44.3370   14.0020 F   0  0  0  0  0  0  0  0  0  0  0  0
   10.4670   42.8370   12.6460 C   0  0  0  0  0  0  0  0  0  0  0  0
   10.5510   41.8550   11.6290 C   0  0  0  0  0  0  0  0  0  0  0  0
   16.0315   41.0253    7.8027 H   0  0  0  0  0  0  0  0  0  0  0  0
   16.4294   39.4312    7.0767 H   0  0  0  0  0  0  0  0  0  0  0  0
   14.7322   40.0195    7.0767 H   0  0  0  0  0  0  0  0  0  0  0  0
   14.4668   38.8113    8.9901 H   0  0  0  0  0  0  0  0  0  0  0  0
   16.2359   38.5853    9.1851 H   0  0  0  0  0  0  0  0  0  0  0  0
   12.9692   38.8808   13.0720 H   0  0  0  0  0  0  0  0  0  0  0  0
   11.9721   39.0228   11.5847 H   0  0  0  0  0  0  0  0  0  0  0  0
   13.4432   37.9921   11.5847 H   0  0  0  0  0  0  0  0  0  0  0  0
   13.1600   41.9235   12.2845 H   0  0  0  0  0  0  0  0  0  0  0  0
   13.5574   41.8655   10.5120 H   0  0  0  0  0  0  0  0  0  0  0  0
    7.6877   40.2803    9.4478 H   0  0  0  0  0  0  0  0  0  0  0  0
    8.9939   39.8997    8.2124 H   0  0  0  0  0  0  0  0  0  0  0  0
    7.8308   37.8207    7.5098 H   0  0  0  0  0  0  0  0  0  0  0  0
    7.5938   35.3732    7.9421 H   0  0  0  0  0  0  0  0  0  0  0  0
    8.1336   34.4384   10.1999 H   0  0  0  0  0  0  0  0  0  0  0  0
    8.8669   34.7464   12.4803 H   0  0  0  0  0  0  0  0  0  0  0  0
    9.6530   36.2325   14.3384 H   0  0  0  0  0  0  0  0  0  0  0  0
    9.9069   38.6957   13.9447 H   0  0  0  0  0  0  0  0  0  0  0  0
    9.3774   39.6730   11.7052 H   0  0  0  0  0  0  0  0  0  0  0  0
    7.1728   41.6784   10.8929 H   0  0  0  0  0  0  0  0  0  0  0  0
    7.0829   43.4258   12.6895 H   0  0  0  0  0  0  0  0  0  0  0  0
   11.3868   43.1691   13.1498 H   0  0  0  0  0  0  0  0  0  0  0  0
  1  2  1  0
  2  3  1  0
  3  4  1  0
  4  5  2  0
  4  6  1  0
  6  7  1  0
  6  8  1  0
  8  9  1  0
  9 10  2  0
 10 11  1  0
 11 12  2  0
 11 13  1  0
 10 14  1  0
 14 15  1  0
 15 16  1  0
 16 17  2  0
 17 18  1  0
 18 19  2  0
 19 20  1  0
 20 21  2  0
 21 22  1  0
 22 23  2  0
 23 24  1  0
 24 25  2  0
 14 26  1  0
 26 27  2  0
 27 28  1  0
 28 29  2  0
 29 30  1  0
 29 31  1  0
 31 32  2  0
 32  9  1  0
 25 16  1  0
 32 26  1  0
 25 20  1  0
  1 33  1  0
  1 34  1  0
  1 35  1  0
  2 36  1  0
  2 37  1  0
  7 38  1  0
  7 39  1  0
  7 40  1  0
  8 41  1  0
  8 42  1  0
 15 43  1  0
 15 44  1  0
 17 45  1  0
 18 46  1  0
 19 47  1  0
 21 48  1  0
 22 49  1  0
 23 50  1  0
 24 51  1  0
 27 52  1  0
 28 53  1  0
 31 54  1  0
M  CHG  1  13  -1
M  END
>  <meeko>  (101) 
{"free_energy": -6.26, "intermolecular_energy": -8.65, "internal_energy": -1.75, "cluster_size": 417, "cluster_id": 2, "rank_in_cluster": 242}

$$$$

     RDKit          3D

 54 57  0  0  0  0  0  0  0  0999 V2000
    9.9560   40.4320   14.8290 C   0  0  0  0  0  0  0  0  0  0  0  0
   10.9990   41.5510   14.8700 C   0  0  0  0  0  0  0  0  0  0  0  0
   10.3430   42.7930   15.0660 O   0  0  0  0  0  0  0  0  0  0  0  0
    9.2490   42.8640   15.8530 C   0  0  0  0  0  0  0  0  0  0  0  0
    8.1140   42.5820   15.4640 O   0  0  0  0  0  0  0  0  0  0  0  0
    9.5970   43.2870   17.1430 N   0  0  0  0  0  0  0  0  0  0  0  0
    8.9690   44.4520   17.7770 C   0  0  0  0  0  0  0  0  0  0  0  0
   10.6360   42.5970   17.9170 C   0  0  0  0  0  0  0  0  0  0  0  0
   10.1860   41.2360   18.3930 C   0  0  0  0  0  0  0  0  0  0  0  0
    9.0630   40.9030   19.1300 C   0  0  0  0  0  0  0  0  0  0  0  0
    7.9600   41.7780   19.6360 C   0  0  0  0  0  0  0  0  0  0  0  0
    6.8030   41.6000   19.1980 O   0  0  0  0  0  0  0  0  0  0  0  0
    8.1960   42.6830   20.4660 O   0  0  0  0  0  1  0  0  0  0  0  0
    9.0880   39.5170   19.3960 N   0  0  0  0  0  0  0  0  0  0  0  0
    8.1080   38.7130   20.1310 C   0  0  0  0  0  0  0  0  0  0  0  0
    6.8870   38.2750   19.3110 C   0  0  0  0  0  0  0  0  0  0  0  0
    5.7010   39.0510   19.3040 C   0  0  0  0  0  0  0  0  0  0  0  0
    4.5810   38.6530   18.5540 C   0  0  0  0  0  0  0  0  0  0  0  0
    4.6250   37.4710   17.7970 C   0  0  0  0  0  0  0  0  0  0  0  0
    5.7910   36.6830   17.7890 C   0  0  0  0  0  0  0  0  0  0  0  0
    5.8180   35.4980   17.0250 C   0  0  0  0  0  0  0  0  0  0  0  0
    6.9720   34.6950   17.0020 C   0  0  0  0  0  0  0  0  0  0  0  0
    8.1040   35.0760   17.7450 C   0  0  0  0  0  0  0  0  0  0  0  0
    8.0830   36.2570   18.5110 C   0  0  0  0  0  0  0  0  0  0  0  0
    6.9290   37.0780   18.5450 C   0  0  0  0  0  0  0  0  0  0  0  0
   10.2290   38.9630   18.8290 C   0  0  0  0  0  0  0  0  0  0  0  0
   10.7260   37.6430   18.8160 C   0  0  0  0  0  0  0  0  0  0  0  0
   11.9250   37.3530   18.1450 C   0  0  0  0  0  0  0  0  0  0  0  0
   12.6220   38.3810   17.4880 C   0  0  0  0  0  0  0  0  0  0  0  0
   13.7770   38.1070   16.8360 F   0  0  0  0  0  0  0  0  0  0  0  0
   12.1220   39.6970   17.5080 C   0  0  0  0  0  0  0  0  0  0  0  0
   10.9190   40.0220   18.1810 C   0  0  0  0  0  0  0  0  0  0  0  0
    9.6871   40.1436   15.8559 H   0  0  0  0  0  0  0  0  0  0  0  0
    9.0586   40.7864   14.3008 H   0  0  0  0  0  0  0  0  0  0  0  0
   10.3726   39.5617   14.3008 H   0  0  0  0  0  0  0  0  0  0  0  0
   11.7000   41.3704   15.6983 H   0  0  0  0  0  0  0  0  0  0  0  0
   11.5553   41.5726   13.9213 H   0  0  0  0  0  0  0  0  0  0  0  0
    9.0247   44.3487   18.8707 H   0  0  0  0  0  0  0  0  0  0  0  0
    9.4964   45.3665   17.4678 H   0  0  0  0  0  0  0  0  0  0  0  0
    7.9152   44.5141   17.4678 H   0  0  0  0  0  0  0  0  0  0  0  0
   11.5264   42.4736   17.2830 H   0  0  0  0  0  0  0  0  0  0  0  0
   10.8569   43.2083   18.8044 H   0  0  0  0  0  0  0  0  0  0  0  0
    8.6148   37.8087   20.4990 H   0  0  0  0  0  0  0  0  0  0  0  0
    7.7241   39.3553   20.9373 H   0  0  0  0  0  0  0  0  0  0  0  0
    5.6565   39.9782   19.8941 H   0  0  0  0  0  0  0  0  0  0  0  0
    3.6690   39.2680   18.5600 H   0  0  0  0  0  0  0  0  0  0  0  0
    3.7478   37.1610   17.2101 H   0  0  0  0  0  0  0  0  0  0  0  0
    4.9323   35.2005   16.4444 H   0  0  0  0  0  0  0  0  0  0  0  0
    6.9895   33.7715   16.4047 H   0  0  0  0  0  0  0  0  0  0  0  0
    9.0080   34.4495   17.7275 H   0  0  0  0  0  0  0  0  0  0  0  0
    8.9728   36.5456   19.0897 H   0  0  0  0  0  0  0  0  0  0  0  0
   10.1752   36.8420   19.3307 H   0  0  0  0  0  0  0  0  0  0  0  0
   12.3169   36.3253   18.1338 H   0  0  0  0  0  0  0  0  0  0  0  0
   12.6786   40.4912   16.9889 H   0  0  0  0  0  0  0  0  0  0  0  0
  1  2  1  0
  2  3  1  0
  3  4  1  0
  4  5  2  0
  4  6  1  0
  6  7  1  0
  6  8  1  0
  8  9  1  0
  9 10  2  0
 10 11  1  0
 11 12  2  0
 11 13  1  0
 10 14  1  0
 14 15  1  0
 15 16  1  0
 16 17  2  0
 17 18  1  0
 18 19  2  0
 19 20  1  0
 20 21  2  0
 21 22  1  0
 22 23  2  0
 23 24  1  0
 24 25  2  0
 14 26  1  0
 26 27  2  0
 27 28  1  0
 28 29  2  0
 29 30  1  0
 29 31  1  0
 31 32  2  0
 32  9  1  0
 25 16  1  0
 32 26  1  0
 25 20  1  0
  1 33  1  0
  1 34  1  0
  1 35  1  0
  2 36  1  0
  2 37  1  0
  7 38  1  0
  7 39  1  0
  7 40  1  0
  8 41  1  0
  8 42  1  0
 15 43  1  0
 15 44  1  0
 17 45  1  0
 18 46  1  0
 19 47  1  0
 21 48  1  0
 22 49  1  0
 23 50  1  0
 24 51  1  0
 27 52  1  0
 28 53  1  0
 31 54  1  0
M  CHG  1  13  -1
M  END
>  <meeko>  (102) 
{"free_energy": -4.39, "intermolecular_energy": -6.78, "internal_energy": -2.14, "cluster_size": 16, "cluster_id": 94, "rank_in_cluster": 13}

$$$$

     RDKit          3D

 54 57  0  0  0  0  0  0  0  0999 V2000
    9.3660   35.7190   10.1310 C   0  0  0  0  0  0  0  0  0  0  0  0
   10.8050   36.2320   10.2370 C   0  0  0  0  0  0  0  0  0  0  0  0
   10.7860   37.5950   10.6310 O   0  0  0  0  0  0  0  0  0  0  0  0
   10.5070   38.5570    9.7260 C   0  0  0  0  0  0  0  0  0  0  0  0
   11.2370   38.8190    8.7680 O   0  0  0  0  0  0  0  0  0  0  0  0
    9.2930   39.1850   10.0340 N   0  0  0  0  0  0  0  0  0  0  0  0
    8.1060   39.0490    9.1830 C   0  0  0  0  0  0  0  0  0  0  0  0
    9.1580   40.0400   11.2210 C   0  0  0  0  0  0  0  0  0  0  0  0
   10.3000   39.8570   12.1910 C   0  0  0  0  0  0  0  0  0  0  0  0
   11.4670   40.5930   12.3060 C   0  0  0  0  0  0  0  0  0  0  0  0
   11.9170   41.7920   11.5330 C   0  0  0  0  0  0  0  0  0  0  0  0
   12.7620   41.6390   10.6250 O   0  0  0  0  0  0  0  0  0  0  0  0
   11.4710   42.9280   11.8050 O   0  0  0  0  0  1  0  0  0  0  0  0
   12.2710   40.0160   13.3120 N   0  0  0  0  0  0  0  0  0  0  0  0
   13.5850   40.4550   13.7900 C   0  0  0  0  0  0  0  0  0  0  0  0
   14.7150   39.4350   13.5970 C   0  0  0  0  0  0  0  0  0  0  0  0
   15.6640   39.2000   14.6230 C   0  0  0  0  0  0  0  0  0  0  0  0
   16.7010   38.2660   14.4510 C   0  0  0  0  0  0  0  0  0  0  0  0
   16.8090   37.5510   13.2480 C   0  0  0  0  0  0  0  0  0  0  0  0
   15.8790   37.7680   12.2130 C   0  0  0  0  0  0  0  0  0  0  0  0
   16.0030   37.0410   11.0110 C   0  0  0  0  0  0  0  0  0  0  0  0
   15.0860   37.2410    9.9630 C   0  0  0  0  0  0  0  0  0  0  0  0
   14.0420   38.1700   10.1170 C   0  0  0  0  0  0  0  0  0  0  0  0
   13.9130   38.8990   11.3140 C   0  0  0  0  0  0  0  0  0  0  0  0
   14.8270   38.7100   12.3800 C   0  0  0  0  0  0  0  0  0  0  0  0
   11.6180   38.9110   13.8420 C   0  0  0  0  0  0  0  0  0  0  0  0
   11.9890   37.9920   14.8460 C   0  0  0  0  0  0  0  0  0  0  0  0
   11.1160   36.9500   15.2000 C   0  0  0  0  0  0  0  0  0  0  0  0
    9.8750   36.8310   14.5510 C   0  0  0  0  0  0  0  0  0  0  0  0
    9.0270   35.8310   14.8900 F   0  0  0  0  0  0  0  0  0  0  0  0
    9.5130   37.7500   13.5470 C   0  0  0  0  0  0  0  0  0  0  0  0
   10.3740   38.8060   13.1640 C   0  0  0  0  0  0  0  0  0  0  0  0
    8.9538   35.5721   11.1402 H   0  0  0  0  0  0  0  0  0  0  0  0
    8.7537   36.4542    9.5883 H   0  0  0  0  0  0  0  0  0  0  0  0
    9.3569   34.7622    9.5883 H   0  0  0  0  0  0  0  0  0  0  0  0
   11.3525   35.6402   10.9853 H   0  0  0  0  0  0  0  0  0  0  0  0
   11.3047   36.1359    9.2618 H   0  0  0  0  0  0  0  0  0  0  0  0
    7.2115   38.9465    9.8150 H   0  0  0  0  0  0  0  0  0  0  0  0
    8.0059   39.9416    8.5479 H   0  0  0  0  0  0  0  0  0  0  0  0
    8.2104   38.1569    8.5479 H   0  0  0  0  0  0  0  0  0  0  0  0
    9.1325   41.0914   10.8987 H   0  0  0  0  0  0  0  0  0  0  0  0
    8.2291   39.7557   11.7370 H   0  0  0  0  0  0  0  0  0  0  0  0
   13.8568   41.3730   13.2483 H   0  0  0  0  0  0  0  0  0  0  0  0
   13.4852   40.6041   14.8753 H   0  0  0  0  0  0  0  0  0  0  0  0
   15.5882   39.7569   15.5686 H   0  0  0  0  0  0  0  0  0  0  0  0
   17.4275   38.0957   15.2592 H   0  0  0  0  0  0  0  0  0  0  0  0
   17.6206   36.8207   13.1136 H   0  0  0  0  0  0  0  0  0  0  0  0
   16.8203   36.3144   10.8923 H   0  0  0  0  0  0  0  0  0  0  0  0
   15.1855   36.6726    9.0265 H   0  0  0  0  0  0  0  0  0  0  0  0
   13.3235   38.3276    9.2991 H   0  0  0  0  0  0  0  0  0  0  0  0
   13.0930   39.6240   11.4232 H   0  0  0  0  0  0  0  0  0  0  0  0
   12.9611   38.0913   15.3512 H   0  0  0  0  0  0  0  0  0  0  0  0
   11.4022   36.2306   15.9814 H   0  0  0  0  0  0  0  0  0  0  0  0
    8.5380   37.6445   13.0487 H   0  0  0  0  0  0  0  0  0  0  0  0
  1  2  1  0
  2  3  1  0
  3  4  1  0
  4  5  2  0
  4  6  1  0
  6  7  1  0
  6  8  1  0
  8  9  1  0
  9 10  2  0
 10 11  1  0
 11 12  2  0
 11 13  1  0
 10 14  1  0
 14 15  1  0
 15 16  1  0
 16 17  2  0
 17 18  1  0
 18 19  2  0
 19 20  1  0
 20 21  2  0
 21 22  1  0
 22 23  2  0
 23 24  1  0
 24 25  2  0
 14 26  1  0
 26 27  2  0
 27 28  1  0
 28 29  2  0
 29 30  1  0
 29 31  1  0
 31 32  2  0
 32  9  1  0
 25 16  1  0
 32 26  1  0
 25 20  1  0
  1 33  1  0
  1 34  1  0
  1 35  1  0
  2 36  1  0
  2 37  1  0
  7 38  1  0
  7 39  1  0
  7 40  1  0
  8 41  1  0
  8 42  1  0
 15 43  1  0
 15 44  1  0
 17 45  1  0
 18 46  1  0
 19 47  1  0
 21 48  1  0
 22 49  1  0
 23 50  1  0
 24 51  1  0
 27 52  1  0
 28 53  1  0
 31 54  1  0
M  CHG  1  13  -1
M  END
>  <meeko>  (103) 
{"free_energy": -4.36, "intermolecular_energy": -6.75, "internal_energy": -2.68, "cluster_size": 51, "cluster_id": 80, "rank_in_cluster": 46}

$$$$

     RDKit          3D

 54 57  0  0  0  0  0  0  0  0999 V2000
   17.0470   38.5850   17.4210 C   0  0  0  0  0  0  0  0  0  0  0  0
   15.9220   37.6090   17.0680 C   0  0  0  0  0  0  0  0  0  0  0  0
   15.2480   37.2240   18.2550 O   0  0  0  0  0  0  0  0  0  0  0  0
   14.7650   35.9690   18.3820 C   0  0  0  0  0  0  0  0  0  0  0  0
   15.3580   35.0730   18.9850 O   0  0  0  0  0  0  0  0  0  0  0  0
   13.5220   35.8540   17.7470 N   0  0  0  0  0  0  0  0  0  0  0  0
   13.3040   34.9420   16.6190 C   0  0  0  0  0  0  0  0  0  0  0  0
   12.3750   36.6700   18.1650 C   0  0  0  0  0  0  0  0  0  0  0  0
   11.4770   37.0330   17.0050 C   0  0  0  0  0  0  0  0  0  0  0  0
   11.7110   37.9270   15.9750 C   0  0  0  0  0  0  0  0  0  0  0  0
   12.9190   38.7620   15.6930 C   0  0  0  0  0  0  0  0  0  0  0  0
   13.8550   38.2610   15.0330 O   0  0  0  0  0  0  0  0  0  0  0  0
   13.0000   39.9330   16.1250 O   0  0  0  0  0  1  0  0  0  0  0  0
   10.5630   37.9870   15.1560 N   0  0  0  0  0  0  0  0  0  0  0  0
   10.3480   38.7850   13.9460 C   0  0  0  0  0  0  0  0  0  0  0  0
   10.1070   37.9690   12.6690 C   0  0  0  0  0  0  0  0  0  0  0  0
   10.3910   36.5810   12.6300 C   0  0  0  0  0  0  0  0  0  0  0  0
   10.1720   35.8300   11.4630 C   0  0  0  0  0  0  0  0  0  0  0  0
    9.6650   36.4530   10.3110 C   0  0  0  0  0  0  0  0  0  0  0  0
    9.3770   37.8310   10.3240 C   0  0  0  0  0  0  0  0  0  0  0  0
    8.8690   38.4400    9.1580 C   0  0  0  0  0  0  0  0  0  0  0  0
    8.5730   39.8150    9.1480 C   0  0  0  0  0  0  0  0  0  0  0  0
    8.7850   40.5840   10.3060 C   0  0  0  0  0  0  0  0  0  0  0  0
    9.2920   39.9820   11.4740 C   0  0  0  0  0  0  0  0  0  0  0  0
    9.5950   38.5980   11.5010 C   0  0  0  0  0  0  0  0  0  0  0  0
    9.5940   37.1290   15.6620 C   0  0  0  0  0  0  0  0  0  0  0  0
    8.2840   36.8330   15.2330 C   0  0  0  0  0  0  0  0  0  0  0  0
    7.5090   35.9000   15.9410 C   0  0  0  0  0  0  0  0  0  0  0  0
    8.0460   35.2650   17.0740 C   0  0  0  0  0  0  0  0  0  0  0  0
    7.3050   34.3620   17.7590 F   0  0  0  0  0  0  0  0  0  0  0  0
    9.3540   35.5690   17.4990 C   0  0  0  0  0  0  0  0  0  0  0  0
   10.1570   36.5100   16.8100 C   0  0  0  0  0  0  0  0  0  0  0  0
   17.1358   38.6621   18.5147 H   0  0  0  0  0  0  0  0  0  0  0  0
   17.9954   38.2188   17.0010 H   0  0  0  0  0  0  0  0  0  0  0  0
   16.8183   39.5756   17.0010 H   0  0  0  0  0  0  0  0  0  0  0  0
   15.2124   38.0976   16.3841 H   0  0  0  0  0  0  0  0  0  0  0  0
   16.3451   36.7194   16.5785 H   0  0  0  0  0  0  0  0  0  0  0  0
   13.0641   33.9384   17.0000 H   0  0  0  0  0  0  0  0  0  0  0  0
   12.4687   35.3107   16.0056 H   0  0  0  0  0  0  0  0  0  0  0  0
   14.2157   34.8931   16.0056 H   0  0  0  0  0  0  0  0  0  0  0  0
   11.7881   36.1037   18.9031 H   0  0  0  0  0  0  0  0  0  0  0  0
   12.7652   37.6047   18.5941 H   0  0  0  0  0  0  0  0  0  0  0  0
    9.4707   39.4276   14.1117 H   0  0  0  0  0  0  0  0  0  0  0  0
   11.2766   39.3508   13.7802 H   0  0  0  0  0  0  0  0  0  0  0  0
   10.7889   36.0842   13.5271 H   0  0  0  0  0  0  0  0  0  0  0  0
   10.3978   34.7535   11.4516 H   0  0  0  0  0  0  0  0  0  0  0  0
    9.4928   35.8640    9.3981 H   0  0  0  0  0  0  0  0  0  0  0  0
    8.7036   37.8374    8.2527 H   0  0  0  0  0  0  0  0  0  0  0  0
    8.1768   40.2874    8.2370 H   0  0  0  0  0  0  0  0  0  0  0  0
    8.5541   41.6595   10.2996 H   0  0  0  0  0  0  0  0  0  0  0  0
    9.4544   40.5925   12.3745 H   0  0  0  0  0  0  0  0  0  0  0  0
    7.8694   37.3322   14.3448 H   0  0  0  0  0  0  0  0  0  0  0  0
    6.4861   35.6672   15.6102 H   0  0  0  0  0  0  0  0  0  0  0  0
    9.7613   35.0635   18.3870 H   0  0  0  0  0  0  0  0  0  0  0  0
  1  2  1  0
  2  3  1  0
  3  4  1  0
  4  5  2  0
  4  6  1  0
  6  7  1  0
  6  8  1  0
  8  9  1  0
  9 10  2  0
 10 11  1  0
 11 12  2  0
 11 13  1  0
 10 14  1  0
 14 15  1  0
 15 16  1  0
 16 17  2  0
 17 18  1  0
 18 19  2  0
 19 20  1  0
 20 21  2  0
 21 22  1  0
 22 23  2  0
 23 24  1  0
 24 25  2  0
 14 26  1  0
 26 27  2  0
 27 28  1  0
 28 29  2  0
 29 30  1  0
 29 31  1  0
 31 32  2  0
 32  9  1  0
 25 16  1  0
 32 26  1  0
 25 20  1  0
  1 33  1  0
  1 34  1  0
  1 35  1  0
  2 36  1  0
  2 37  1  0
  7 38  1  0
  7 39  1  0
  7 40  1  0
  8 41  1  0
  8 42  1  0
 15 43  1  0
 15 44  1  0
 17 45  1  0
 18 46  1  0
 19 47  1  0
 21 48  1  0
 22 49  1  0
 23 50  1  0
 24 51  1  0
 27 52  1  0
 28 53  1  0
 31 54  1  0
M  CHG  1  13  -1
M  END
>  <meeko>  (104) 
{"free_energy": -5.89, "intermolecular_energy": -8.28, "internal_energy": -1.86, "cluster_size": 74, "cluster_id": 37, "rank_in_cluster": 14}

$$$$

     RDKit          3D

 54 57  0  0  0  0  0  0  0  0999 V2000
    3.8740   38.2110   19.1870 C   0  0  0  0  0  0  0  0  0  0  0  0
    4.0590   37.6710   17.7660 C   0  0  0  0  0  0  0  0  0  0  0  0
    5.3690   37.9770   17.3170 O   0  0  0  0  0  0  0  0  0  0  0  0
    6.4360   37.6730   18.0860 C   0  0  0  0  0  0  0  0  0  0  0  0
    7.1400   38.5220   18.6360 O   0  0  0  0  0  0  0  0  0  0  0  0
    6.6070   36.2840   18.1620 N   0  0  0  0  0  0  0  0  0  0  0  0
    6.0620   35.4910   19.2700 C   0  0  0  0  0  0  0  0  0  0  0  0
    7.3710   35.5530   17.1430 C   0  0  0  0  0  0  0  0  0  0  0  0
    8.6180   36.2950   16.7220 C   0  0  0  0  0  0  0  0  0  0  0  0
    9.1210   36.4900   15.4480 C   0  0  0  0  0  0  0  0  0  0  0  0
    8.5660   36.0600   14.1260 C   0  0  0  0  0  0  0  0  0  0  0  0
    8.4950   36.8990   13.2030 O   0  0  0  0  0  0  0  0  0  0  0  0
    8.1640   34.8880   13.9560 O   0  0  0  0  0  1  0  0  0  0  0  0
   10.3440   37.1880   15.5440 N   0  0  0  0  0  0  0  0  0  0  0  0
   11.2310   37.6250   14.4620 C   0  0  0  0  0  0  0  0  0  0  0  0
   10.7250   38.8330   13.6620 C   0  0  0  0  0  0  0  0  0  0  0  0
   10.1520   39.9500   14.3190 C   0  0  0  0  0  0  0  0  0  0  0  0
    9.6870   41.0580   13.5900 C   0  0  0  0  0  0  0  0  0  0  0  0
    9.7860   41.0690   12.1900 C   0  0  0  0  0  0  0  0  0  0  0  0
   10.3500   39.9710   11.5140 C   0  0  0  0  0  0  0  0  0  0  0  0
   10.4400   39.9980   10.1070 C   0  0  0  0  0  0  0  0  0  0  0  0
   11.0000   38.9120    9.4110 C   0  0  0  0  0  0  0  0  0  0  0  0
   11.4710   37.7940   10.1220 C   0  0  0  0  0  0  0  0  0  0  0  0
   11.3830   37.7600   11.5270 C   0  0  0  0  0  0  0  0  0  0  0  0
   10.8230   38.8460   12.2440 C   0  0  0  0  0  0  0  0  0  0  0  0
   10.6240   37.4380   16.8810 C   0  0  0  0  0  0  0  0  0  0  0  0
   11.7110   38.0790   17.5100 C   0  0  0  0  0  0  0  0  0  0  0  0
   11.7370   38.2050   18.9090 C   0  0  0  0  0  0  0  0  0  0  0  0
   10.6760   37.6920   19.6740 C   0  0  0  0  0  0  0  0  0  0  0  0
   10.6930   37.8140   21.0230 F   0  0  0  0  0  0  0  0  0  0  0  0
    9.5950   37.0490   19.0400 C   0  0  0  0  0  0  0  0  0  0  0  0
    9.5440   36.9010   17.6320 C   0  0  0  0  0  0  0  0  0  0  0  0
    4.1416   37.4299   19.9138 H   0  0  0  0  0  0  0  0  0  0  0  0
    4.5234   39.0866   19.3340 H   0  0  0  0  0  0  0  0  0  0  0  0
    2.8241   38.5044   19.3340 H   0  0  0  0  0  0  0  0  0  0  0  0
    3.9154   36.5804   17.7654 H   0  0  0  0  0  0  0  0  0  0  0  0
    3.3209   38.1354   17.0955 H   0  0  0  0  0  0  0  0  0  0  0  0
    6.3693   35.9382   20.2269 H   0  0  0  0  0  0  0  0  0  0  0  0
    4.9639   35.4789   19.2068 H   0  0  0  0  0  0  0  0  0  0  0  0
    6.4443   34.4615   19.2068 H   0  0  0  0  0  0  0  0  0  0  0  0
    7.6625   34.5748   17.5530 H   0  0  0  0  0  0  0  0  0  0  0  0
    6.7296   35.4410   16.2564 H   0  0  0  0  0  0  0  0  0  0  0  0
   12.2034   37.8897   14.9028 H   0  0  0  0  0  0  0  0  0  0  0  0
   11.2894   36.7866   13.7523 H   0  0  0  0  0  0  0  0  0  0  0  0
   10.0699   39.9500   15.4159 H   0  0  0  0  0  0  0  0  0  0  0  0
    9.2454   41.9168   14.1168 H   0  0  0  0  0  0  0  0  0  0  0  0
    9.4223   41.9369   11.6204 H   0  0  0  0  0  0  0  0  0  0  0  0
   10.0705   40.8725    9.5514 H   0  0  0  0  0  0  0  0  0  0  0  0
   11.0694   38.9370    8.3135 H   0  0  0  0  0  0  0  0  0  0  0  0
   11.9094   36.9436    9.5792 H   0  0  0  0  0  0  0  0  0  0  0  0
   11.7532   36.8804   12.0740 H   0  0  0  0  0  0  0  0  0  0  0  0
   12.5381   38.4801   16.9058 H   0  0  0  0  0  0  0  0  0  0  0  0
   12.5842   38.7030   19.4032 H   0  0  0  0  0  0  0  0  0  0  0  0
    8.7715   36.6527   19.6522 H   0  0  0  0  0  0  0  0  0  0  0  0
  1  2  1  0
  2  3  1  0
  3  4  1  0
  4  5  2  0
  4  6  1  0
  6  7  1  0
  6  8  1  0
  8  9  1  0
  9 10  2  0
 10 11  1  0
 11 12  2  0
 11 13  1  0
 10 14  1  0
 14 15  1  0
 15 16  1  0
 16 17  2  0
 17 18  1  0
 18 19  2  0
 19 20  1  0
 20 21  2  0
 21 22  1  0
 22 23  2  0
 23 24  1  0
 24 25  2  0
 14 26  1  0
 26 27  2  0
 27 28  1  0
 28 29  2  0
 29 30  1  0
 29 31  1  0
 31 32  2  0
 32  9  1  0
 25 16  1  0
 32 26  1  0
 25 20  1  0
  1 33  1  0
  1 34  1  0
  1 35  1  0
  2 36  1  0
  2 37  1  0
  7 38  1  0
  7 39  1  0
  7 40  1  0
  8 41  1  0
  8 42  1  0
 15 43  1  0
 15 44  1  0
 17 45  1  0
 18 46  1  0
 19 47  1  0
 21 48  1  0
 22 49  1  0
 23 50  1  0
 24 51  1  0
 27 52  1  0
 28 53  1  0
 31 54  1  0
M  CHG  1  13  -1
M  END
>  <meeko>  (105) 
{"free_energy": -5.58, "intermolecular_energy": -7.97, "internal_energy": -1.85, "cluster_size": 31, "cluster_id": 41, "rank_in_cluster": 10}

$$$$

     RDKit          3D

 54 57  0  0  0  0  0  0  0  0999 V2000
    6.2350   35.8550   20.1970 C   0  0  0  0  0  0  0  0  0  0  0  0
    5.2750   37.0460   20.2520 C   0  0  0  0  0  0  0  0  0  0  0  0
    5.7780   38.0900   19.4330 O   0  0  0  0  0  0  0  0  0  0  0  0
    5.6920   37.9960   18.0890 C   0  0  0  0  0  0  0  0  0  0  0  0
    4.7190   38.3900   17.4440 O   0  0  0  0  0  0  0  0  0  0  0  0
    6.8480   37.4070   17.5620 N   0  0  0  0  0  0  0  0  0  0  0  0
    6.7920   36.3350   16.5630 C   0  0  0  0  0  0  0  0  0  0  0  0
    8.1850   37.8190   18.0110 C   0  0  0  0  0  0  0  0  0  0  0  0
    9.2620   37.4420   17.0210 C   0  0  0  0  0  0  0  0  0  0  0  0
    9.9670   38.2580   16.1540 C   0  0  0  0  0  0  0  0  0  0  0  0
    9.8950   39.7410   15.9700 C   0  0  0  0  0  0  0  0  0  0  0  0
    9.2630   40.1950   14.9910 O   0  0  0  0  0  0  0  0  0  0  0  0
   10.4720   40.5110   16.7690 O   0  0  0  0  0  1  0  0  0  0  0  0
   10.8270   37.4570   15.3730 N   0  0  0  0  0  0  0  0  0  0  0  0
   11.7690   37.8790   14.3320 C   0  0  0  0  0  0  0  0  0  0  0  0
   11.1440   38.6820   13.1840 C   0  0  0  0  0  0  0  0  0  0  0  0
   11.5190   40.0290   12.9510 C   0  0  0  0  0  0  0  0  0  0  0  0
   10.9490   40.7680   11.9000 C   0  0  0  0  0  0  0  0  0  0  0  0
    9.9910   40.1740   11.0630 C   0  0  0  0  0  0  0  0  0  0  0  0
    9.6010   38.8380   11.2740 C   0  0  0  0  0  0  0  0  0  0  0  0
    8.6370   38.2570   10.4230 C   0  0  0  0  0  0  0  0  0  0  0  0
    8.2320   36.9250   10.6160 C   0  0  0  0  0  0  0  0  0  0  0  0
    8.7920   36.1680   11.6610 C   0  0  0  0  0  0  0  0  0  0  0  0
    9.7530   36.7420   12.5150 C   0  0  0  0  0  0  0  0  0  0  0  0
   10.1730   38.0830   12.3350 C   0  0  0  0  0  0  0  0  0  0  0  0
   10.6720   36.1270   15.7400 C   0  0  0  0  0  0  0  0  0  0  0  0
   11.2770   34.9440   15.2660 C   0  0  0  0  0  0  0  0  0  0  0  0
   10.9350   33.7060   15.8340 C   0  0  0  0  0  0  0  0  0  0  0  0
    9.9920   33.6540   16.8750 C   0  0  0  0  0  0  0  0  0  0  0  0
    9.6610   32.4630   17.4300 F   0  0  0  0  0  0  0  0  0  0  0  0
    9.3900   34.8380   17.3410 C   0  0  0  0  0  0  0  0  0  0  0  0
    9.7090   36.1000   16.7840 C   0  0  0  0  0  0  0  0  0  0  0  0
    6.4883   35.5407   21.2202 H   0  0  0  0  0  0  0  0  0  0  0  0
    5.7540   35.0206   19.6656 H   0  0  0  0  0  0  0  0  0  0  0  0
    7.1525   36.1479   19.6656 H   0  0  0  0  0  0  0  0  0  0  0  0
    4.2844   36.7370   19.8870 H   0  0  0  0  0  0  0  0  0  0  0  0
    5.1860   37.4009   21.2894 H   0  0  0  0  0  0  0  0  0  0  0  0
    6.7411   35.3614   17.0724 H   0  0  0  0  0  0  0  0  0  0  0  0
    5.8995   36.4666   15.9336 H   0  0  0  0  0  0  0  0  0  0  0  0
    7.6933   36.3729   15.9336 H   0  0  0  0  0  0  0  0  0  0  0  0
    8.1929   38.9109   18.1440 H   0  0  0  0  0  0  0  0  0  0  0  0
    8.3986   37.2984   18.9562 H   0  0  0  0  0  0  0  0  0  0  0  0
   12.5430   38.5024   14.8036 H   0  0  0  0  0  0  0  0  0  0  0  0
   12.1671   36.9570   13.8833 H   0  0  0  0  0  0  0  0  0  0  0  0
   12.2676   40.5032   13.6027 H   0  0  0  0  0  0  0  0  0  0  0  0
   11.2535   41.8118   11.7333 H   0  0  0  0  0  0  0  0  0  0  0  0
    9.5446   40.7533   10.2413 H   0  0  0  0  0  0  0  0  0  0  0  0
    8.2006   38.8491    9.6051 H   0  0  0  0  0  0  0  0  0  0  0  0
    7.4791   36.4757    9.9516 H   0  0  0  0  0  0  0  0  0  0  0  0
    8.4782   35.1245   11.8114 H   0  0  0  0  0  0  0  0  0  0  0  0
   10.1825   36.1425   13.3312 H   0  0  0  0  0  0  0  0  0  0  0  0
   12.0158   34.9912   14.4524 H   0  0  0  0  0  0  0  0  0  0  0  0
   11.4030   32.7811   15.4659 H   0  0  0  0  0  0  0  0  0  0  0  0
    8.6545   34.7815   18.1570 H   0  0  0  0  0  0  0  0  0  0  0  0
  1  2  1  0
  2  3  1  0
  3  4  1  0
  4  5  2  0
  4  6  1  0
  6  7  1  0
  6  8  1  0
  8  9  1  0
  9 10  2  0
 10 11  1  0
 11 12  2  0
 11 13  1  0
 10 14  1  0
 14 15  1  0
 15 16  1  0
 16 17  2  0
 17 18  1  0
 18 19  2  0
 19 20  1  0
 20 21  2  0
 21 22  1  0
 22 23  2  0
 23 24  1  0
 24 25  2  0
 14 26  1  0
 26 27  2  0
 27 28  1  0
 28 29  2  0
 29 30  1  0
 29 31  1  0
 31 32  2  0
 32  9  1  0
 25 16  1  0
 32 26  1  0
 25 20  1  0
  1 33  1  0
  1 34  1  0
  1 35  1  0
  2 36  1  0
  2 37  1  0
  7 38  1  0
  7 39  1  0
  7 40  1  0
  8 41  1  0
  8 42  1  0
 15 43  1  0
 15 44  1  0
 17 45  1  0
 18 46  1  0
 19 47  1  0
 21 48  1  0
 22 49  1  0
 23 50  1  0
 24 51  1  0
 27 52  1  0
 28 53  1  0
 31 54  1  0
M  CHG  1  13  -1
M  END
>  <meeko>  (106) 
{"free_energy": -5.52, "intermolecular_energy": -7.91, "internal_energy": -1.81, "cluster_size": 326, "cluster_id": 11, "rank_in_cluster": 217}

$$$$

     RDKit          3D

 54 57  0  0  0  0  0  0  0  0999 V2000
   14.9600   37.4050   16.6410 C   0  0  0  0  0  0  0  0  0  0  0  0
   14.5330   38.6340   17.4480 C   0  0  0  0  0  0  0  0  0  0  0  0
   13.1350   38.8280   17.3000 O   0  0  0  0  0  0  0  0  0  0  0  0
   12.6520   39.4680   16.2140 C   0  0  0  0  0  0  0  0  0  0  0  0
   12.7330   40.6870   16.0540 O   0  0  0  0  0  0  0  0  0  0  0  0
   12.0700   38.5560   15.3240 N   0  0  0  0  0  0  0  0  0  0  0  0
   10.8670   37.7890   15.6690 C   0  0  0  0  0  0  0  0  0  0  0  0
   12.6580   38.2990   14.0030 C   0  0  0  0  0  0  0  0  0  0  0  0
   11.7670   38.7740   12.8790 C   0  0  0  0  0  0  0  0  0  0  0  0
   10.5490   38.2650   12.4640 C   0  0  0  0  0  0  0  0  0  0  0  0
    9.7490   37.1310   13.0230 C   0  0  0  0  0  0  0  0  0  0  0  0
    8.5530   37.3320   13.3260 O   0  0  0  0  0  0  0  0  0  0  0  0
   10.2730   36.0100   13.2010 O   0  0  0  0  0  1  0  0  0  0  0  0
   10.1150   38.9900   11.3340 N   0  0  0  0  0  0  0  0  0  0  0  0
    8.8820   38.8180   10.5600 C   0  0  0  0  0  0  0  0  0  0  0  0
    8.7870   37.4970    9.7840 C   0  0  0  0  0  0  0  0  0  0  0  0
    9.4050   36.3200   10.2760 C   0  0  0  0  0  0  0  0  0  0  0  0
    9.3200   35.1080    9.5680 C   0  0  0  0  0  0  0  0  0  0  0  0
    8.6180   35.0520    8.3540 C   0  0  0  0  0  0  0  0  0  0  0  0
    7.9970   36.2080    7.8440 C   0  0  0  0  0  0  0  0  0  0  0  0
    7.2960   36.1320    6.6220 C   0  0  0  0  0  0  0  0  0  0  0  0
    6.6690   37.2740    6.0940 C   0  0  0  0  0  0  0  0  0  0  0  0
    6.7410   38.4960    6.7870 C   0  0  0  0  0  0  0  0  0  0  0  0
    7.4400   38.5780    8.0060 C   0  0  0  0  0  0  0  0  0  0  0  0
    8.0770   37.4370    8.5540 C   0  0  0  0  0  0  0  0  0  0  0  0
   11.0570   39.9630   11.0240 C   0  0  0  0  0  0  0  0  0  0  0  0
   11.1090   40.9270    9.9970 C   0  0  0  0  0  0  0  0  0  0  0  0
   12.1980   41.8120    9.9210 C   0  0  0  0  0  0  0  0  0  0  0  0
   13.2280   41.7320   10.8730 C   0  0  0  0  0  0  0  0  0  0  0  0
   14.2780   42.5840   10.8080 F   0  0  0  0  0  0  0  0  0  0  0  0
   13.1710   40.7640   11.8950 C   0  0  0  0  0  0  0  0  0  0  0  0
   12.0900   39.8540   11.9930 C   0  0  0  0  0  0  0  0  0  0  0  0
   15.2417   36.5943   17.3291 H   0  0  0  0  0  0  0  0  0  0  0  0
   14.1242   37.0741   16.0071 H   0  0  0  0  0  0  0  0  0  0  0  0
   15.8210   37.6636   16.0071 H   0  0  0  0  0  0  0  0  0  0  0  0
   14.7721   38.4777   18.5103 H   0  0  0  0  0  0  0  0  0  0  0  0
   15.0697   39.5213   17.0810 H   0  0  0  0  0  0  0  0  0  0  0  0
   10.7720   37.7285   16.7632 H   0  0  0  0  0  0  0  0  0  0  0  0
    9.9809   38.2892   15.2512 H   0  0  0  0  0  0  0  0  0  0  0  0
   10.9466   36.7746   15.2512 H   0  0  0  0  0  0  0  0  0  0  0  0
   13.6224   38.8239   13.9364 H   0  0  0  0  0  0  0  0  0  0  0  0
   12.7855   37.2117   13.8961 H   0  0  0  0  0  0  0  0  0  0  0  0
    8.0316   38.8678   11.2559 H   0  0  0  0  0  0  0  0  0  0  0  0
    8.8750   39.6201    9.8072 H   0  0  0  0  0  0  0  0  0  0  0  0
    9.9592   36.3552   11.2255 H   0  0  0  0  0  0  0  0  0  0  0  0
    9.8038   34.2037    9.9657 H   0  0  0  0  0  0  0  0  0  0  0  0
    8.5529   34.1037    7.8003 H   0  0  0  0  0  0  0  0  0  0  0  0
    7.2399   35.1761    6.0807 H   0  0  0  0  0  0  0  0  0  0  0  0
    6.1232   37.2122    5.1409 H   0  0  0  0  0  0  0  0  0  0  0  0
    6.2497   39.3899    6.3752 H   0  0  0  0  0  0  0  0  0  0  0  0
    7.4924   39.5387    8.5393 H   0  0  0  0  0  0  0  0  0  0  0  0
   10.2982   40.9865    9.2560 H   0  0  0  0  0  0  0  0  0  0  0  0
   12.2437   42.5641    9.1196 H   0  0  0  0  0  0  0  0  0  0  0  0
   13.9845   40.7138   12.6337 H   0  0  0  0  0  0  0  0  0  0  0  0
  1  2  1  0
  2  3  1  0
  3  4  1  0
  4  5  2  0
  4  6  1  0
  6  7  1  0
  6  8  1  0
  8  9  1  0
  9 10  2  0
 10 11  1  0
 11 12  2  0
 11 13  1  0
 10 14  1  0
 14 15  1  0
 15 16  1  0
 16 17  2  0
 17 18  1  0
 18 19  2  0
 19 20  1  0
 20 21  2  0
 21 22  1  0
 22 23  2  0
 23 24  1  0
 24 25  2  0
 14 26  1  0
 26 27  2  0
 27 28  1  0
 28 29  2  0
 29 30  1  0
 29 31  1  0
 31 32  2  0
 32  9  1  0
 25 16  1  0
 32 26  1  0
 25 20  1  0
  1 33  1  0
  1 34  1  0
  1 35  1  0
  2 36  1  0
  2 37  1  0
  7 38  1  0
  7 39  1  0
  7 40  1  0
  8 41  1  0
  8 42  1  0
 15 43  1  0
 15 44  1  0
 17 45  1  0
 18 46  1  0
 19 47  1  0
 21 48  1  0
 22 49  1  0
 23 50  1  0
 24 51  1  0
 27 52  1  0
 28 53  1  0
 31 54  1  0
M  CHG  1  13  -1
M  END
>  <meeko>  (107) 
{"free_energy": -5.69, "intermolecular_energy": -8.08, "internal_energy": -1.28, "cluster_size": 283, "cluster_id": 7, "rank_in_cluster": 213}

$$$$

     RDKit          3D

 54 57  0  0  0  0  0  0  0  0999 V2000
   19.0190   40.2270    5.6570 C   0  0  0  0  0  0  0  0  0  0  0  0
   17.6890   40.7110    6.2390 C   0  0  0  0  0  0  0  0  0  0  0  0
   16.6360   40.3530    5.3590 O   0  0  0  0  0  0  0  0  0  0  0  0
   15.9000   41.3130    4.7600 C   0  0  0  0  0  0  0  0  0  0  0  0
   16.0820   41.6810    3.5980 O   0  0  0  0  0  0  0  0  0  0  0  0
   14.9240   41.8040    5.6370 N   0  0  0  0  0  0  0  0  0  0  0  0
   13.4890   41.6190    5.3910 C   0  0  0  0  0  0  0  0  0  0  0  0
   15.2930   42.5570    6.8430 C   0  0  0  0  0  0  0  0  0  0  0  0
   14.4650   42.1600    8.0420 C   0  0  0  0  0  0  0  0  0  0  0  0
   13.6290   42.9450    8.8170 C   0  0  0  0  0  0  0  0  0  0  0  0
   13.2780   44.3930    8.6760 C   0  0  0  0  0  0  0  0  0  0  0  0
   13.5860   45.1780    9.5980 O   0  0  0  0  0  0  0  0  0  0  0  0
   12.6710   44.8040    7.6630 O   0  0  0  0  0  1  0  0  0  0  0  0
   13.1140   42.1590    9.8700 N   0  0  0  0  0  0  0  0  0  0  0  0
   12.1840   42.5550   10.9310 C   0  0  0  0  0  0  0  0  0  0  0  0
   10.7560   42.0180   10.7700 C   0  0  0  0  0  0  0  0  0  0  0  0
   10.4710   40.9760    9.8520 C   0  0  0  0  0  0  0  0  0  0  0  0
    9.1640   40.4810    9.7020 C   0  0  0  0  0  0  0  0  0  0  0  0
    8.1160   41.0200   10.4660 C   0  0  0  0  0  0  0  0  0  0  0  0
    8.3740   42.0570   11.3830 C   0  0  0  0  0  0  0  0  0  0  0  0
    7.3090   42.5870   12.1420 C   0  0  0  0  0  0  0  0  0  0  0  0
    7.5430   43.6230   13.0630 C   0  0  0  0  0  0  0  0  0  0  0  0
    8.8440   44.1310   13.2290 C   0  0  0  0  0  0  0  0  0  0  0  0
    9.9100   43.6060   12.4750 C   0  0  0  0  0  0  0  0  0  0  0  0
    9.6930   42.5630   11.5420 C   0  0  0  0  0  0  0  0  0  0  0  0
   13.6210   40.8700    9.7680 C   0  0  0  0  0  0  0  0  0  0  0  0
   13.4340   39.7210   10.5650 C   0  0  0  0  0  0  0  0  0  0  0  0
   14.0740   38.5180   10.2220 C   0  0  0  0  0  0  0  0  0  0  0  0
   14.8960   38.4680    9.0830 C   0  0  0  0  0  0  0  0  0  0  0  0
   15.5130   37.3100    8.7440 F   0  0  0  0  0  0  0  0  0  0  0  0
   15.0810   39.6200    8.2940 C   0  0  0  0  0  0  0  0  0  0  0  0
   14.4550   40.8480    8.6190 C   0  0  0  0  0  0  0  0  0  0  0  0
   19.7083   39.9762    6.4767 H   0  0  0  0  0  0  0  0  0  0  0  0
   18.8452   39.3345    5.0380 H   0  0  0  0  0  0  0  0  0  0  0  0
   19.4595   41.0225    5.0380 H   0  0  0  0  0  0  0  0  0  0  0  0
   17.5242   40.2413    7.2199 H   0  0  0  0  0  0  0  0  0  0  0  0
   17.7145   41.8042    6.3587 H   0  0  0  0  0  0  0  0  0  0  0  0
   12.9581   41.5506    6.3520 H   0  0  0  0  0  0  0  0  0  0  0  0
   13.1019   42.4747    4.8183 H   0  0  0  0  0  0  0  0  0  0  0  0
   13.3315   40.6931    4.8183 H   0  0  0  0  0  0  0  0  0  0  0  0
   16.3533   42.3685    7.0672 H   0  0  0  0  0  0  0  0  0  0  0  0
   15.1079   43.6229    6.6441 H   0  0  0  0  0  0  0  0  0  0  0  0
   12.5815   42.1878   11.8887 H   0  0  0  0  0  0  0  0  0  0  0  0
   12.1092   43.6514   10.8831 H   0  0  0  0  0  0  0  0  0  0  0  0
   11.2849   40.5484    9.2480 H   0  0  0  0  0  0  0  0  0  0  0  0
    8.9619   39.6710    8.9858 H   0  0  0  0  0  0  0  0  0  0  0  0
    7.0935   40.6320   10.3480 H   0  0  0  0  0  0  0  0  0  0  0  0
    6.2921   42.1881   12.0126 H   0  0  0  0  0  0  0  0  0  0  0  0
    6.7107   44.0353   13.6523 H   0  0  0  0  0  0  0  0  0  0  0  0
    9.0288   44.9408   13.9501 H   0  0  0  0  0  0  0  0  0  0  0  0
   10.9237   44.0106   12.6120 H   0  0  0  0  0  0  0  0  0  0  0  0
   12.7878   39.7668   11.4540 H   0  0  0  0  0  0  0  0  0  0  0  0
   13.9325   37.6202   10.8416 H   0  0  0  0  0  0  0  0  0  0  0  0
   15.7265   39.5646    7.4050 H   0  0  0  0  0  0  0  0  0  0  0  0
  1  2  1  0
  2  3  1  0
  3  4  1  0
  4  5  2  0
  4  6  1  0
  6  7  1  0
  6  8  1  0
  8  9  1  0
  9 10  2  0
 10 11  1  0
 11 12  2  0
 11 13  1  0
 10 14  1  0
 14 15  1  0
 15 16  1  0
 16 17  2  0
 17 18  1  0
 18 19  2  0
 19 20  1  0
 20 21  2  0
 21 22  1  0
 22 23  2  0
 23 24  1  0
 24 25  2  0
 14 26  1  0
 26 27  2  0
 27 28  1  0
 28 29  2  0
 29 30  1  0
 29 31  1  0
 31 32  2  0
 32  9  1  0
 25 16  1  0
 32 26  1  0
 25 20  1  0
  1 33  1  0
  1 34  1  0
  1 35  1  0
  2 36  1  0
  2 37  1  0
  7 38  1  0
  7 39  1  0
  7 40  1  0
  8 41  1  0
  8 42  1  0
 15 43  1  0
 15 44  1  0
 17 45  1  0
 18 46  1  0
 19 47  1  0
 21 48  1  0
 22 49  1  0
 23 50  1  0
 24 51  1  0
 27 52  1  0
 28 53  1  0
 31 54  1  0
M  CHG  1  13  -1
M  END
>  <meeko>  (108) 
{"free_energy": -4.41, "intermolecular_energy": -6.79, "internal_energy": -1.71, "cluster_size": 6, "cluster_id": 125, "rank_in_cluster": 4}

$$$$

     RDKit          3D

 54 57  0  0  0  0  0  0  0  0999 V2000
    9.4950   39.4960   19.4330 C   0  0  0  0  0  0  0  0  0  0  0  0
   10.3140   38.6790   18.4310 C   0  0  0  0  0  0  0  0  0  0  0  0
    9.5910   38.5680   17.2160 O   0  0  0  0  0  0  0  0  0  0  0  0
   10.1200   39.0430   16.0680 C   0  0  0  0  0  0  0  0  0  0  0  0
    9.6600   40.0090   15.4590 O   0  0  0  0  0  0  0  0  0  0  0  0
   11.2420   38.2910   15.6970 N   0  0  0  0  0  0  0  0  0  0  0  0
   11.2350   36.8240   15.7020 C   0  0  0  0  0  0  0  0  0  0  0  0
   12.5000   38.9410   15.3080 C   0  0  0  0  0  0  0  0  0  0  0  0
   12.8210   38.7390   13.8460 C   0  0  0  0  0  0  0  0  0  0  0  0
   11.9640   38.4260   12.8060 C   0  0  0  0  0  0  0  0  0  0  0  0
   10.4800   38.2320   12.8180 C   0  0  0  0  0  0  0  0  0  0  0  0
    9.7430   39.2370   12.7210 O   0  0  0  0  0  0  0  0  0  0  0  0
    9.9890   37.0890   12.9420 O   0  0  0  0  0  1  0  0  0  0  0  0
   12.7200   38.2730   11.6240 N   0  0  0  0  0  0  0  0  0  0  0  0
   12.2460   37.9520   10.2750 C   0  0  0  0  0  0  0  0  0  0  0  0
   10.8640   38.5200    9.9250 C   0  0  0  0  0  0  0  0  0  0  0  0
   10.6580   39.9180    9.8220 C   0  0  0  0  0  0  0  0  0  0  0  0
    9.3930   40.4420    9.5020 C   0  0  0  0  0  0  0  0  0  0  0  0
    8.3100   39.5770    9.2800 C   0  0  0  0  0  0  0  0  0  0  0  0
    8.4890   38.1840    9.3780 C   0  0  0  0  0  0  0  0  0  0  0  0
    7.3890   37.3290    9.1530 C   0  0  0  0  0  0  0  0  0  0  0  0
    7.5450   35.9350    9.2460 C   0  0  0  0  0  0  0  0  0  0  0  0
    8.8020   35.3910    9.5640 C   0  0  0  0  0  0  0  0  0  0  0  0
    9.9030   36.2390    9.7910 C   0  0  0  0  0  0  0  0  0  0  0  0
    9.7650   37.6460    9.7010 C   0  0  0  0  0  0  0  0  0  0  0  0
   14.0620   38.4890   11.9080 C   0  0  0  0  0  0  0  0  0  0  0  0
   15.2140   38.4430   11.0960 C   0  0  0  0  0  0  0  0  0  0  0  0
   16.4750   38.7180   11.6520 C   0  0  0  0  0  0  0  0  0  0  0  0
   16.5800   39.0380   13.0160 C   0  0  0  0  0  0  0  0  0  0  0  0
   17.7920   39.3070   13.5570 F   0  0  0  0  0  0  0  0  0  0  0  0
   15.4250   39.0780   13.8220 C   0  0  0  0  0  0  0  0  0  0  0  0
   14.1420   38.7990   13.2920 C   0  0  0  0  0  0  0  0  0  0  0  0
    9.7795   39.2122   20.4570 H   0  0  0  0  0  0  0  0  0  0  0  0
    9.6927   40.5674   19.2811 H   0  0  0  0  0  0  0  0  0  0  0  0
    8.4241   39.2956   19.2811 H   0  0  0  0  0  0  0  0  0  0  0  0
   11.2736   39.1828   18.2430 H   0  0  0  0  0  0  0  0  0  0  0  0
   10.5035   37.6758   18.8405 H   0  0  0  0  0  0  0  0  0  0  0  0
   11.2333   36.4609   16.7403 H   0  0  0  0  0  0  0  0  0  0  0  0
   10.3351   36.4599   15.1847 H   0  0  0  0  0  0  0  0  0  0  0  0
   12.1314   36.4513   15.1847 H   0  0  0  0  0  0  0  0  0  0  0  0
   12.4169   40.0198   15.5062 H   0  0  0  0  0  0  0  0  0  0  0  0
   13.3102   38.4858   15.8966 H   0  0  0  0  0  0  0  0  0  0  0  0
   12.9730   38.3520    9.5529 H   0  0  0  0  0  0  0  0  0  0  0  0
   12.1497   36.8570   10.2336 H   0  0  0  0  0  0  0  0  0  0  0  0
   11.5004   40.6038    9.9950 H   0  0  0  0  0  0  0  0  0  0  0  0
    9.2520   41.5303    9.4256 H   0  0  0  0  0  0  0  0  0  0  0  0
    7.3209   39.9878    9.0293 H   0  0  0  0  0  0  0  0  0  0  0  0
    6.4059   37.7549    8.9039 H   0  0  0  0  0  0  0  0  0  0  0  0
    6.6856   35.2712    9.0704 H   0  0  0  0  0  0  0  0  0  0  0  0
    8.9256   34.3003    9.6356 H   0  0  0  0  0  0  0  0  0  0  0  0
   10.8818   35.8038   10.0412 H   0  0  0  0  0  0  0  0  0  0  0  0
   15.1257   38.1922   10.0286 H   0  0  0  0  0  0  0  0  0  0  0  0
   17.3760   38.6829   11.0220 H   0  0  0  0  0  0  0  0  0  0  0  0
   15.5223   39.3319   14.8879 H   0  0  0  0  0  0  0  0  0  0  0  0
  1  2  1  0
  2  3  1  0
  3  4  1  0
  4  5  2  0
  4  6  1  0
  6  7  1  0
  6  8  1  0
  8  9  1  0
  9 10  2  0
 10 11  1  0
 11 12  2  0
 11 13  1  0
 10 14  1  0
 14 15  1  0
 15 16  1  0
 16 17  2  0
 17 18  1  0
 18 19  2  0
 19 20  1  0
 20 21  2  0
 21 22  1  0
 22 23  2  0
 23 24  1  0
 24 25  2  0
 14 26  1  0
 26 27  2  0
 27 28  1  0
 28 29  2  0
 29 30  1  0
 29 31  1  0
 31 32  2  0
 32  9  1  0
 25 16  1  0
 32 26  1  0
 25 20  1  0
  1 33  1  0
  1 34  1  0
  1 35  1  0
  2 36  1  0
  2 37  1  0
  7 38  1  0
  7 39  1  0
  7 40  1  0
  8 41  1  0
  8 42  1  0
 15 43  1  0
 15 44  1  0
 17 45  1  0
 18 46  1  0
 19 47  1  0
 21 48  1  0
 22 49  1  0
 23 50  1  0
 24 51  1  0
 27 52  1  0
 28 53  1  0
 31 54  1  0
M  CHG  1  13  -1
M  END
>  <meeko>  (109) 
{"free_energy": -5.21, "intermolecular_energy": -7.6, "internal_energy": -1.62, "cluster_size": 27, "cluster_id": 85, "rank_in_cluster": 10}

$$$$

     RDKit          3D

 54 57  0  0  0  0  0  0  0  0999 V2000
   15.2730   44.4170    9.7930 C   0  0  0  0  0  0  0  0  0  0  0  0
   14.2330   43.3230    9.5350 C   0  0  0  0  0  0  0  0  0  0  0  0
   13.1000   43.5530   10.3570 O   0  0  0  0  0  0  0  0  0  0  0  0
   13.2360   43.5940   11.7000 C   0  0  0  0  0  0  0  0  0  0  0  0
   12.8520   44.5390   12.3910 O   0  0  0  0  0  0  0  0  0  0  0  0
   13.8550   42.4280   12.1680 N   0  0  0  0  0  0  0  0  0  0  0  0
   15.0450   42.4660   13.0240 C   0  0  0  0  0  0  0  0  0  0  0  0
   13.3540   41.0980   11.7960 C   0  0  0  0  0  0  0  0  0  0  0  0
   11.8810   41.1140   11.4630 C   0  0  0  0  0  0  0  0  0  0  0  0
   11.2360   40.5880   10.3570 C   0  0  0  0  0  0  0  0  0  0  0  0
   11.7980   39.8290    9.1970 C   0  0  0  0  0  0  0  0  0  0  0  0
   12.6990   40.3590    8.5130 O   0  0  0  0  0  0  0  0  0  0  0  0
   11.3600   38.6940    8.9070 O   0  0  0  0  0  1  0  0  0  0  0  0
    9.8620   40.8980   10.4430 N   0  0  0  0  0  0  0  0  0  0  0  0
    8.7880   40.5420    9.5100 C   0  0  0  0  0  0  0  0  0  0  0  0
    8.5450   39.0360    9.3500 C   0  0  0  0  0  0  0  0  0  0  0  0
    8.0770   38.5020    8.1240 C   0  0  0  0  0  0  0  0  0  0  0  0
    7.8530   37.1230    7.9730 C   0  0  0  0  0  0  0  0  0  0  0  0
    8.0910   36.2510    9.0480 C   0  0  0  0  0  0  0  0  0  0  0  0
    8.5550   36.7570   10.2770 C   0  0  0  0  0  0  0  0  0  0  0  0
    8.7890   35.8670   11.3450 C   0  0  0  0  0  0  0  0  0  0  0  0
    9.2520   36.3500   12.5820 C   0  0  0  0  0  0  0  0  0  0  0  0
    9.4830   37.7260   12.7520 C   0  0  0  0  0  0  0  0  0  0  0  0
    9.2510   38.6210   11.6900 C   0  0  0  0  0  0  0  0  0  0  0  0
    8.7850   38.1510   10.4370 C   0  0  0  0  0  0  0  0  0  0  0  0
    9.6270   41.6220   11.6050 C   0  0  0  0  0  0  0  0  0  0  0  0
    8.4480   42.1770   12.1440 C   0  0  0  0  0  0  0  0  0  0  0  0
    8.4950   42.8680   13.3660 C   0  0  0  0  0  0  0  0  0  0  0  0
    9.7180   43.0010   14.0450 C   0  0  0  0  0  0  0  0  0  0  0  0
    9.7690   43.6640   15.2250 F   0  0  0  0  0  0  0  0  0  0  0  0
   10.8920   42.4480   13.4980 C   0  0  0  0  0  0  0  0  0  0  0  0
   10.8780   41.7510   12.2650 C   0  0  0  0  0  0  0  0  0  0  0  0
   15.4016   44.5523   10.8770 H   0  0  0  0  0  0  0  0  0  0  0  0
   16.2332   44.1235    9.3436 H   0  0  0  0  0  0  0  0  0  0  0  0
   14.9313   45.3611    9.3436 H   0  0  0  0  0  0  0  0  0  0  0  0
   13.9308   43.3447    8.4775 H   0  0  0  0  0  0  0  0  0  0  0  0
   14.6658   42.3392    9.7692 H   0  0  0  0  0  0  0  0  0  0  0  0
   14.7375   42.4562   14.0801 H   0  0  0  0  0  0  0  0  0  0  0  0
   15.6738   41.5875   12.8170 H   0  0  0  0  0  0  0  0  0  0  0  0
   15.6164   43.3828   12.8170 H   0  0  0  0  0  0  0  0  0  0  0  0
   13.9118   40.7428   10.9169 H   0  0  0  0  0  0  0  0  0  0  0  0
   13.4972   40.4306   12.6586 H   0  0  0  0  0  0  0  0  0  0  0  0
    7.8560   41.0022    9.8700 H   0  0  0  0  0  0  0  0  0  0  0  0
    9.1022   40.9106    8.5224 H   0  0  0  0  0  0  0  0  0  0  0  0
    7.8860   39.1774    7.2771 H   0  0  0  0  0  0  0  0  0  0  0  0
    7.4912   36.7265    7.0129 H   0  0  0  0  0  0  0  0  0  0  0  0
    7.9147   35.1717    8.9295 H   0  0  0  0  0  0  0  0  0  0  0  0
    8.6087   34.7903   11.2102 H   0  0  0  0  0  0  0  0  0  0  0  0
    9.4328   35.6532   13.4138 H   0  0  0  0  0  0  0  0  0  0  0  0
    9.8465   38.1052   13.7185 H   0  0  0  0  0  0  0  0  0  0  0  0
    9.4334   39.6961   11.8345 H   0  0  0  0  0  0  0  0  0  0  0  0
    7.4933   42.0690   11.6084 H   0  0  0  0  0  0  0  0  0  0  0  0
    7.5780   43.3033   13.7898 H   0  0  0  0  0  0  0  0  0  0  0  0
   11.8421   42.5600   14.0410 H   0  0  0  0  0  0  0  0  0  0  0  0
  1  2  1  0
  2  3  1  0
  3  4  1  0
  4  5  2  0
  4  6  1  0
  6  7  1  0
  6  8  1  0
  8  9  1  0
  9 10  2  0
 10 11  1  0
 11 12  2  0
 11 13  1  0
 10 14  1  0
 14 15  1  0
 15 16  1  0
 16 17  2  0
 17 18  1  0
 18 19  2  0
 19 20  1  0
 20 21  2  0
 21 22  1  0
 22 23  2  0
 23 24  1  0
 24 25  2  0
 14 26  1  0
 26 27  2  0
 27 28  1  0
 28 29  2  0
 29 30  1  0
 29 31  1  0
 31 32  2  0
 32  9  1  0
 25 16  1  0
 32 26  1  0
 25 20  1  0
  1 33  1  0
  1 34  1  0
  1 35  1  0
  2 36  1  0
  2 37  1  0
  7 38  1  0
  7 39  1  0
  7 40  1  0
  8 41  1  0
  8 42  1  0
 15 43  1  0
 15 44  1  0
 17 45  1  0
 18 46  1  0
 19 47  1  0
 21 48  1  0
 22 49  1  0
 23 50  1  0
 24 51  1  0
 27 52  1  0
 28 53  1  0
 31 54  1  0
M  CHG  1  13  -1
M  END
>  <meeko>  (110) 
{"free_energy": -5.25, "intermolecular_energy": -7.64, "internal_energy": -1.84, "cluster_size": 74, "cluster_id": 18, "rank_in_cluster": 46}

$$$$

     RDKit          3D

 54 57  0  0  0  0  0  0  0  0999 V2000
    8.1710   34.3270   17.7500 C   0  0  0  0  0  0  0  0  0  0  0  0
    9.3020   34.6410   16.7680 C   0  0  0  0  0  0  0  0  0  0  0  0
   10.0310   35.7630   17.2380 O   0  0  0  0  0  0  0  0  0  0  0  0
   10.1470   36.8660   16.4670 C   0  0  0  0  0  0  0  0  0  0  0  0
   10.6860   37.9060   16.8490 O   0  0  0  0  0  0  0  0  0  0  0  0
    9.5810   36.6450   15.2050 N   0  0  0  0  0  0  0  0  0  0  0  0
    8.1320   36.6900   14.9800 C   0  0  0  0  0  0  0  0  0  0  0  0
   10.4180   36.3250   14.0400 C   0  0  0  0  0  0  0  0  0  0  0  0
   10.3670   37.4050   12.9860 C   0  0  0  0  0  0  0  0  0  0  0  0
   10.8260   38.7090   13.0570 C   0  0  0  0  0  0  0  0  0  0  0  0
   11.5300   39.4130   14.1740 C   0  0  0  0  0  0  0  0  0  0  0  0
   10.9950   40.4230   14.6780 O   0  0  0  0  0  0  0  0  0  0  0  0
   12.6410   39.0080   14.5810 O   0  0  0  0  0  1  0  0  0  0  0  0
   10.5040   39.3700   11.8520 N   0  0  0  0  0  0  0  0  0  0  0  0
   10.7970   40.7540   11.4670 C   0  0  0  0  0  0  0  0  0  0  0  0
   11.7310   40.9030   10.2580 C   0  0  0  0  0  0  0  0  0  0  0  0
   11.5390   41.9450    9.3170 C   0  0  0  0  0  0  0  0  0  0  0  0
   12.3920   42.0850    8.2090 C   0  0  0  0  0  0  0  0  0  0  0  0
   13.4520   41.1840    8.0200 C   0  0  0  0  0  0  0  0  0  0  0  0
   13.6620   40.1400    8.9400 C   0  0  0  0  0  0  0  0  0  0  0  0
   14.7320   39.2440    8.7340 C   0  0  0  0  0  0  0  0  0  0  0  0
   14.9600   38.1930    9.6400 C   0  0  0  0  0  0  0  0  0  0  0  0
   14.1190   38.0360   10.7560 C   0  0  0  0  0  0  0  0  0  0  0  0
   13.0490   38.9270   10.9670 C   0  0  0  0  0  0  0  0  0  0  0  0
   12.8040   39.9910   10.0640 C   0  0  0  0  0  0  0  0  0  0  0  0
    9.8390   38.4890   11.0100 C   0  0  0  0  0  0  0  0  0  0  0  0
    9.2990   38.6520    9.7170 C   0  0  0  0  0  0  0  0  0  0  0  0
    8.6730   37.5690    9.0780 C   0  0  0  0  0  0  0  0  0  0  0  0
    8.5910   36.3270    9.7320 C   0  0  0  0  0  0  0  0  0  0  0  0
    7.9920   35.2780    9.1200 F   0  0  0  0  0  0  0  0  0  0  0  0
    9.1290   36.1730   11.0240 C   0  0  0  0  0  0  0  0  0  0  0  0
    9.7600   37.2480   11.6960 C   0  0  0  0  0  0  0  0  0  0  0  0
    8.5412   34.4298   18.7807 H   0  0  0  0  0  0  0  0  0  0  0  0
    7.3391   35.0282   17.5876 H   0  0  0  0  0  0  0  0  0  0  0  0
    7.8197   33.2973   17.5876 H   0  0  0  0  0  0  0  0  0  0  0  0
    9.9730   33.7728   16.6902 H   0  0  0  0  0  0  0  0  0  0  0  0
    8.8793   34.8642   15.7773 H   0  0  0  0  0  0  0  0  0  0  0  0
    7.6109   36.7062   15.9486 H   0  0  0  0  0  0  0  0  0  0  0  0
    7.8772   37.5965   14.4114 H   0  0  0  0  0  0  0  0  0  0  0  0
    7.8215   35.8011   14.4114 H   0  0  0  0  0  0  0  0  0  0  0  0
   11.4591   36.2053   14.3742 H   0  0  0  0  0  0  0  0  0  0  0  0
   10.0318   35.3977   13.5917 H   0  0  0  0  0  0  0  0  0  0  0  0
    9.8454   41.2511   11.2273 H   0  0  0  0  0  0  0  0  0  0  0  0
   11.3215   41.2080   12.3207 H   0  0  0  0  0  0  0  0  0  0  0  0
   10.7101   42.6547    9.4559 H   0  0  0  0  0  0  0  0  0  0  0  0
   12.2291   42.9009    7.4894 H   0  0  0  0  0  0  0  0  0  0  0  0
   14.1189   41.2942    7.1522 H   0  0  0  0  0  0  0  0  0  0  0  0
   15.3903   39.3679    7.8615 H   0  0  0  0  0  0  0  0  0  0  0  0
   15.7944   37.4952    9.4761 H   0  0  0  0  0  0  0  0  0  0  0  0
   14.2974   37.2150   11.4661 H   0  0  0  0  0  0  0  0  0  0  0  0
   12.3962   38.7954   11.8425 H   0  0  0  0  0  0  0  0  0  0  0  0
    9.3680   39.6257    9.2099 H   0  0  0  0  0  0  0  0  0  0  0  0
    8.2489   37.6920    8.0705 H   0  0  0  0  0  0  0  0  0  0  0  0
    9.0575   35.1952   11.5228 H   0  0  0  0  0  0  0  0  0  0  0  0
  1  2  1  0
  2  3  1  0
  3  4  1  0
  4  5  2  0
  4  6  1  0
  6  7  1  0
  6  8  1  0
  8  9  1  0
  9 10  2  0
 10 11  1  0
 11 12  2  0
 11 13  1  0
 10 14  1  0
 14 15  1  0
 15 16  1  0
 16 17  2  0
 17 18  1  0
 18 19  2  0
 19 20  1  0
 20 21  2  0
 21 22  1  0
 22 23  2  0
 23 24  1  0
 24 25  2  0
 14 26  1  0
 26 27  2  0
 27 28  1  0
 28 29  2  0
 29 30  1  0
 29 31  1  0
 31 32  2  0
 32  9  1  0
 25 16  1  0
 32 26  1  0
 25 20  1  0
  1 33  1  0
  1 34  1  0
  1 35  1  0
  2 36  1  0
  2 37  1  0
  7 38  1  0
  7 39  1  0
  7 40  1  0
  8 41  1  0
  8 42  1  0
 15 43  1  0
 15 44  1  0
 17 45  1  0
 18 46  1  0
 19 47  1  0
 21 48  1  0
 22 49  1  0
 23 50  1  0
 24 51  1  0
 27 52  1  0
 28 53  1  0
 31 54  1  0
M  CHG  1  13  -1
M  END
>  <meeko>  (111) 
{"free_energy": -5.31, "intermolecular_energy": -7.69, "internal_energy": -1.61, "cluster_size": 251, "cluster_id": 26, "rank_in_cluster": 189}

$$$$

     RDKit          3D

 54 57  0  0  0  0  0  0  0  0999 V2000
   10.5910   36.2500   17.7430 C   0  0  0  0  0  0  0  0  0  0  0  0
   11.5150   35.5240   16.7630 C   0  0  0  0  0  0  0  0  0  0  0  0
   10.9290   35.5370   15.4710 O   0  0  0  0  0  0  0  0  0  0  0  0
    9.9260   34.6830   15.1750 C   0  0  0  0  0  0  0  0  0  0  0  0
   10.1060   33.5820   14.6520 O   0  0  0  0  0  0  0  0  0  0  0  0
    8.6900   35.2270   15.5490 N   0  0  0  0  0  0  0  0  0  0  0  0
    7.7940   34.5500   16.4930 C   0  0  0  0  0  0  0  0  0  0  0  0
    8.2160   36.4990   14.9880 C   0  0  0  0  0  0  0  0  0  0  0  0
    9.2000   37.0950   14.0090 C   0  0  0  0  0  0  0  0  0  0  0  0
   10.1760   38.0500   14.2330 C   0  0  0  0  0  0  0  0  0  0  0  0
   10.5610   38.7400   15.5040 C   0  0  0  0  0  0  0  0  0  0  0  0
    9.6600   39.0750   16.3020 O   0  0  0  0  0  0  0  0  0  0  0  0
   11.7600   38.9930   15.7520 O   0  0  0  0  0  1  0  0  0  0  0  0
   10.8120   38.3460   13.0080 N   0  0  0  0  0  0  0  0  0  0  0  0
   11.9090   39.2850   12.7560 C   0  0  0  0  0  0  0  0  0  0  0  0
   11.7410   40.1500   11.4990 C   0  0  0  0  0  0  0  0  0  0  0  0
   10.6430   41.0370   11.3710 C   0  0  0  0  0  0  0  0  0  0  0  0
   10.4850   41.8310   10.2220 C   0  0  0  0  0  0  0  0  0  0  0  0
   11.4220   41.7510    9.1780 C   0  0  0  0  0  0  0  0  0  0  0  0
   12.5190   40.8760    9.2820 C   0  0  0  0  0  0  0  0  0  0  0  0
   13.4490   40.8080    8.2240 C   0  0  0  0  0  0  0  0  0  0  0  0
   14.5530   39.9400    8.3050 C   0  0  0  0  0  0  0  0  0  0  0  0
   14.7290   39.1380    9.4470 C   0  0  0  0  0  0  0  0  0  0  0  0
   13.8040   39.2010   10.5060 C   0  0  0  0  0  0  0  0  0  0  0  0
   12.6860   40.0700   10.4410 C   0  0  0  0  0  0  0  0  0  0  0  0
   10.2430   37.5790   12.0000 C   0  0  0  0  0  0  0  0  0  0  0  0
   10.5010   37.5070   10.6150 C   0  0  0  0  0  0  0  0  0  0  0  0
    9.7660   36.6190    9.8110 C   0  0  0  0  0  0  0  0  0  0  0  0
    8.7790   35.8060   10.3940 C   0  0  0  0  0  0  0  0  0  0  0  0
    8.0700   34.9450    9.6250 F   0  0  0  0  0  0  0  0  0  0  0  0
    8.5240   35.8870   11.7770 C   0  0  0  0  0  0  0  0  0  0  0  0
    9.2430   36.7770   12.6110 C   0  0  0  0  0  0  0  0  0  0  0  0
   10.8919   36.0136   18.7743 H   0  0  0  0  0  0  0  0  0  0  0  0
   10.6633   37.3354   17.5796 H   0  0  0  0  0  0  0  0  0  0  0  0
    9.5535   35.9229   17.5796 H   0  0  0  0  0  0  0  0  0  0  0  0
   12.4893   36.0335   16.7300 H   0  0  0  0  0  0  0  0  0  0  0  0
   11.6590   34.4845   17.0926 H   0  0  0  0  0  0  0  0  0  0  0  0
    8.1025   34.7831   17.5228 H   0  0  0  0  0  0  0  0  0  0  0  0
    6.7624   34.8962   16.3320 H   0  0  0  0  0  0  0  0  0  0  0  0
    7.8453   33.4631   16.3320 H   0  0  0  0  0  0  0  0  0  0  0  0
    7.2624   36.3232   14.4686 H   0  0  0  0  0  0  0  0  0  0  0  0
    8.0953   37.2095   15.8190 H   0  0  0  0  0  0  0  0  0  0  0  0
   11.9915   39.9555   13.6241 H   0  0  0  0  0  0  0  0  0  0  0  0
   12.8084   38.6732   12.5925 H   0  0  0  0  0  0  0  0  0  0  0  0
    9.9037   41.1050   12.1827 H   0  0  0  0  0  0  0  0  0  0  0  0
    9.6276   42.5152   10.1401 H   0  0  0  0  0  0  0  0  0  0  0  0
   11.2979   42.3727    8.2790 H   0  0  0  0  0  0  0  0  0  0  0  0
   13.3105   41.4363    7.3318 H   0  0  0  0  0  0  0  0  0  0  0  0
   15.2763   39.8886    7.4779 H   0  0  0  0  0  0  0  0  0  0  0  0
   15.5923   38.4594    9.5127 H   0  0  0  0  0  0  0  0  0  0  0  0
   13.9503   38.5687   11.3941 H   0  0  0  0  0  0  0  0  0  0  0  0
   11.2761   38.1448   10.1651 H   0  0  0  0  0  0  0  0  0  0  0  0
    9.9624   36.5606    8.7302 H   0  0  0  0  0  0  0  0  0  0  0  0
    7.7486   35.2441   12.2191 H   0  0  0  0  0  0  0  0  0  0  0  0
  1  2  1  0
  2  3  1  0
  3  4  1  0
  4  5  2  0
  4  6  1  0
  6  7  1  0
  6  8  1  0
  8  9  1  0
  9 10  2  0
 10 11  1  0
 11 12  2  0
 11 13  1  0
 10 14  1  0
 14 15  1  0
 15 16  1  0
 16 17  2  0
 17 18  1  0
 18 19  2  0
 19 20  1  0
 20 21  2  0
 21 22  1  0
 22 23  2  0
 23 24  1  0
 24 25  2  0
 14 26  1  0
 26 27  2  0
 27 28  1  0
 28 29  2  0
 29 30  1  0
 29 31  1  0
 31 32  2  0
 32  9  1  0
 25 16  1  0
 32 26  1  0
 25 20  1  0
  1 33  1  0
  1 34  1  0
  1 35  1  0
  2 36  1  0
  2 37  1  0
  7 38  1  0
  7 39  1  0
  7 40  1  0
  8 41  1  0
  8 42  1  0
 15 43  1  0
 15 44  1  0
 17 45  1  0
 18 46  1  0
 19 47  1  0
 21 48  1  0
 22 49  1  0
 23 50  1  0
 24 51  1  0
 27 52  1  0
 28 53  1  0
 31 54  1  0
M  CHG  1  13  -1
M  END
>  <meeko>  (112) 
{"free_energy": -5.44, "intermolecular_energy": -7.83, "internal_energy": -2.01, "cluster_size": 251, "cluster_id": 26, "rank_in_cluster": 169}

$$$$

     RDKit          3D

 54 57  0  0  0  0  0  0  0  0999 V2000
   16.0000   37.5070   11.4440 C   0  0  0  0  0  0  0  0  0  0  0  0
   16.3670   38.7680   12.2290 C   0  0  0  0  0  0  0  0  0  0  0  0
   15.3240   39.0710   13.1420 O   0  0  0  0  0  0  0  0  0  0  0  0
   14.7190   40.2770   13.1020 C   0  0  0  0  0  0  0  0  0  0  0  0
   15.1680   41.2790   13.6600 O   0  0  0  0  0  0  0  0  0  0  0  0
   13.5420   40.2110   12.3450 N   0  0  0  0  0  0  0  0  0  0  0  0
   12.8710   38.9390   12.0530 C   0  0  0  0  0  0  0  0  0  0  0  0
   12.9320   41.4210   11.7770 C   0  0  0  0  0  0  0  0  0  0  0  0
   11.5230   41.1780   11.2910 C   0  0  0  0  0  0  0  0  0  0  0  0
   11.0940   40.3890   10.2380 C   0  0  0  0  0  0  0  0  0  0  0  0
   11.8870   39.5270    9.3070 C   0  0  0  0  0  0  0  0  0  0  0  0
   13.0420   39.8870    8.9930 O   0  0  0  0  0  0  0  0  0  0  0  0
   11.3960   38.4780    8.8370 O   0  0  0  0  0  1  0  0  0  0  0  0
    9.6940   40.5170   10.1160 N   0  0  0  0  0  0  0  0  0  0  0  0
    8.8000   39.8640    9.1550 C   0  0  0  0  0  0  0  0  0  0  0  0
    8.5790   38.3650    9.3950 C   0  0  0  0  0  0  0  0  0  0  0  0
    9.0100   37.7510   10.5980 C   0  0  0  0  0  0  0  0  0  0  0  0
    8.8090   36.3780   10.8230 C   0  0  0  0  0  0  0  0  0  0  0  0
    8.1750   35.5930    9.8470 C   0  0  0  0  0  0  0  0  0  0  0  0
    7.7390   36.1790    8.6440 C   0  0  0  0  0  0  0  0  0  0  0  0
    7.1040   35.3740    7.6750 C   0  0  0  0  0  0  0  0  0  0  0  0
    6.6600   35.9380    6.4660 C   0  0  0  0  0  0  0  0  0  0  0  0
    6.8510   37.3100    6.2220 C   0  0  0  0  0  0  0  0  0  0  0  0
    7.4850   38.1180    7.1850 C   0  0  0  0  0  0  0  0  0  0  0  0
    7.9380   37.5670    8.4090 C   0  0  0  0  0  0  0  0  0  0  0  0
    9.2270   41.3900   11.0900 C   0  0  0  0  0  0  0  0  0  0  0  0
    7.9320   41.8620   11.3870 C   0  0  0  0  0  0  0  0  0  0  0  0
    7.7380   42.7510   12.4570 C   0  0  0  0  0  0  0  0  0  0  0  0
    8.8380   43.1640   13.2270 C   0  0  0  0  0  0  0  0  0  0  0  0
    8.6570   44.0180   14.2630 F   0  0  0  0  0  0  0  0  0  0  0  0
   10.1300   42.6920   12.9230 C   0  0  0  0  0  0  0  0  0  0  0  0
   10.3570   41.8000   11.8470 C   0  0  0  0  0  0  0  0  0  0  0  0
   15.7634   36.6939   12.1461 H   0  0  0  0  0  0  0  0  0  0  0  0
   15.1240   37.7112   10.8108 H   0  0  0  0  0  0  0  0  0  0  0  0
   16.8488   37.2093   10.8108 H   0  0  0  0  0  0  0  0  0  0  0  0
   17.3021   38.5973   12.7826 H   0  0  0  0  0  0  0  0  0  0  0  0
   16.5041   39.6089   11.5332 H   0  0  0  0  0  0  0  0  0  0  0  0
   12.6071   38.4387   12.9964 H   0  0  0  0  0  0  0  0  0  0  0  0
   11.9571   39.1315   11.4719 H   0  0  0  0  0  0  0  0  0  0  0  0
   13.5459   38.2934   11.4719 H   0  0  0  0  0  0  0  0  0  0  0  0
   12.9095   42.2025   12.5508 H   0  0  0  0  0  0  0  0  0  0  0  0
   13.5379   41.7294   10.9123 H   0  0  0  0  0  0  0  0  0  0  0  0
    7.8222   40.3656    9.2023 H   0  0  0  0  0  0  0  0  0  0  0  0
    9.2864   39.9510    8.1722 H   0  0  0  0  0  0  0  0  0  0  0  0
    9.5094   38.3584   11.3672 H   0  0  0  0  0  0  0  0  0  0  0  0
    9.1483   35.9190   11.7633 H   0  0  0  0  0  0  0  0  0  0  0  0
    8.0188   34.5184   10.0227 H   0  0  0  0  0  0  0  0  0  0  0  0
    6.9557   34.3009    7.8660 H   0  0  0  0  0  0  0  0  0  0  0  0
    6.1645   35.3078    5.7128 H   0  0  0  0  0  0  0  0  0  0  0  0
    6.5042   37.7527    5.2766 H   0  0  0  0  0  0  0  0  0  0  0  0
    7.6303   39.1898    6.9846 H   0  0  0  0  0  0  0  0  0  0  0  0
    7.0743   41.5343   10.7812 H   0  0  0  0  0  0  0  0  0  0  0  0
    6.7293   43.1222   12.6910 H   0  0  0  0  0  0  0  0  0  0  0  0
   10.9815   43.0238   13.5352 H   0  0  0  0  0  0  0  0  0  0  0  0
  1  2  1  0
  2  3  1  0
  3  4  1  0
  4  5  2  0
  4  6  1  0
  6  7  1  0
  6  8  1  0
  8  9  1  0
  9 10  2  0
 10 11  1  0
 11 12  2  0
 11 13  1  0
 10 14  1  0
 14 15  1  0
 15 16  1  0
 16 17  2  0
 17 18  1  0
 18 19  2  0
 19 20  1  0
 20 21  2  0
 21 22  1  0
 22 23  2  0
 23 24  1  0
 24 25  2  0
 14 26  1  0
 26 27  2  0
 27 28  1  0
 28 29  2  0
 29 30  1  0
 29 31  1  0
 31 32  2  0
 32  9  1  0
 25 16  1  0
 32 26  1  0
 25 20  1  0
  1 33  1  0
  1 34  1  0
  1 35  1  0
  2 36  1  0
  2 37  1  0
  7 38  1  0
  7 39  1  0
  7 40  1  0
  8 41  1  0
  8 42  1  0
 15 43  1  0
 15 44  1  0
 17 45  1  0
 18 46  1  0
 19 47  1  0
 21 48  1  0
 22 49  1  0
 23 50  1  0
 24 51  1  0
 27 52  1  0
 28 53  1  0
 31 54  1  0
M  CHG  1  13  -1
M  END
>  <meeko>  (113) 
{"free_energy": -7.51, "intermolecular_energy": -9.9, "internal_energy": -1.38, "cluster_size": 417, "cluster_id": 2, "rank_in_cluster": 50}

$$$$

     RDKit          3D

 54 57  0  0  0  0  0  0  0  0999 V2000
   15.2060   38.5790    9.2080 C   0  0  0  0  0  0  0  0  0  0  0  0
   14.5160   39.8770    8.7810 C   0  0  0  0  0  0  0  0  0  0  0  0
   13.4290   40.1380    9.6540 O   0  0  0  0  0  0  0  0  0  0  0  0
   12.1630   39.9150    9.2430 C   0  0  0  0  0  0  0  0  0  0  0  0
   11.7870   38.8480    8.7540 O   0  0  0  0  0  0  0  0  0  0  0  0
   11.3690   41.0480    9.4590 N   0  0  0  0  0  0  0  0  0  0  0  0
   11.6210   42.3200    8.7720 C   0  0  0  0  0  0  0  0  0  0  0  0
   10.2540   41.0260   10.4150 C   0  0  0  0  0  0  0  0  0  0  0  0
   10.2060   39.7420   11.2090 C   0  0  0  0  0  0  0  0  0  0  0  0
   10.8980   39.4080   12.3590 C   0  0  0  0  0  0  0  0  0  0  0  0
   11.8590   40.2230   13.1650 C   0  0  0  0  0  0  0  0  0  0  0  0
   11.4900   40.6650   14.2740 O   0  0  0  0  0  0  0  0  0  0  0  0
   13.0030   40.4750   12.7280 O   0  0  0  0  0  1  0  0  0  0  0  0
   10.5830   38.0770   12.7090 N   0  0  0  0  0  0  0  0  0  0  0  0
   11.0660   37.2970   13.8520 C   0  0  0  0  0  0  0  0  0  0  0  0
   10.1610   37.3400   15.0900 C   0  0  0  0  0  0  0  0  0  0  0  0
   10.0940   38.5010   15.9000 C   0  0  0  0  0  0  0  0  0  0  0  0
    9.2670   38.5450   17.0350 C   0  0  0  0  0  0  0  0  0  0  0  0
    8.4920   37.4270   17.3840 C   0  0  0  0  0  0  0  0  0  0  0  0
    8.5430   36.2610   16.5960 C   0  0  0  0  0  0  0  0  0  0  0  0
    7.7590   35.1470   16.9610 C   0  0  0  0  0  0  0  0  0  0  0  0
    7.7940   33.9720   16.1900 C   0  0  0  0  0  0  0  0  0  0  0  0
    8.6150   33.9090   15.0500 C   0  0  0  0  0  0  0  0  0  0  0  0
    9.4010   35.0170   14.6800 C   0  0  0  0  0  0  0  0  0  0  0  0
    9.3770   36.2090   15.4460 C   0  0  0  0  0  0  0  0  0  0  0  0
    9.6890   37.5600   11.7800 C   0  0  0  0  0  0  0  0  0  0  0  0
    9.0830   36.2920   11.6650 C   0  0  0  0  0  0  0  0  0  0  0  0
    8.1910   36.0340   10.6110 C   0  0  0  0  0  0  0  0  0  0  0  0
    7.9070   37.0450    9.6760 C   0  0  0  0  0  0  0  0  0  0  0  0
    7.0460   36.8050    8.6590 F   0  0  0  0  0  0  0  0  0  0  0  0
    8.5200   38.3080    9.7950 C   0  0  0  0  0  0  0  0  0  0  0  0
    9.4280   38.5950   10.8430 C   0  0  0  0  0  0  0  0  0  0  0  0
   15.2355   38.5235   10.3062 H   0  0  0  0  0  0  0  0  0  0  0  0
   14.6461   37.7188    8.8123 H   0  0  0  0  0  0  0  0  0  0  0  0
   16.2322   38.5619    8.8123 H   0  0  0  0  0  0  0  0  0  0  0  0
   15.2345   40.7085    8.8297 H   0  0  0  0  0  0  0  0  0  0  0  0
   14.1453   39.7760    7.7503 H   0  0  0  0  0  0  0  0  0  0  0  0
   11.7783   43.1141    9.5168 H   0  0  0  0  0  0  0  0  0  0  0  0
   12.5178   42.2252    8.1421 H   0  0  0  0  0  0  0  0  0  0  0  0
   10.7558   42.5742    8.1421 H   0  0  0  0  0  0  0  0  0  0  0  0
   10.3689   41.8691   11.1121 H   0  0  0  0  0  0  0  0  0  0  0  0
    9.3179   41.1033    9.8426 H   0  0  0  0  0  0  0  0  0  0  0  0
   11.1615   36.2482   13.5344 H   0  0  0  0  0  0  0  0  0  0  0  0
   12.0228   37.7489   14.1526 H   0  0  0  0  0  0  0  0  0  0  0  0
   10.6987   39.3811   15.6361 H   0  0  0  0  0  0  0  0  0  0  0  0
    9.2265   39.4557   17.6506 H   0  0  0  0  0  0  0  0  0  0  0  0
    7.8451   37.4621   18.2730 H   0  0  0  0  0  0  0  0  0  0  0  0
    7.1172   35.1977   17.8530 H   0  0  0  0  0  0  0  0  0  0  0  0
    7.1813   33.1048   16.4775 H   0  0  0  0  0  0  0  0  0  0  0  0
    8.6432   32.9907   14.4451 H   0  0  0  0  0  0  0  0  0  0  0  0
   10.0404   34.9567   13.7870 H   0  0  0  0  0  0  0  0  0  0  0  0
    9.3086   35.5054   12.4001 H   0  0  0  0  0  0  0  0  0  0  0  0
    7.7169   35.0458   10.5175 H   0  0  0  0  0  0  0  0  0  0  0  0
    8.2878   39.0894    9.0565 H   0  0  0  0  0  0  0  0  0  0  0  0
  1  2  1  0
  2  3  1  0
  3  4  1  0
  4  5  2  0
  4  6  1  0
  6  7  1  0
  6  8  1  0
  8  9  1  0
  9 10  2  0
 10 11  1  0
 11 12  2  0
 11 13  1  0
 10 14  1  0
 14 15  1  0
 15 16  1  0
 16 17  2  0
 17 18  1  0
 18 19  2  0
 19 20  1  0
 20 21  2  0
 21 22  1  0
 22 23  2  0
 23 24  1  0
 24 25  2  0
 14 26  1  0
 26 27  2  0
 27 28  1  0
 28 29  2  0
 29 30  1  0
 29 31  1  0
 31 32  2  0
 32  9  1  0
 25 16  1  0
 32 26  1  0
 25 20  1  0
  1 33  1  0
  1 34  1  0
  1 35  1  0
  2 36  1  0
  2 37  1  0
  7 38  1  0
  7 39  1  0
  7 40  1  0
  8 41  1  0
  8 42  1  0
 15 43  1  0
 15 44  1  0
 17 45  1  0
 18 46  1  0
 19 47  1  0
 21 48  1  0
 22 49  1  0
 23 50  1  0
 24 51  1  0
 27 52  1  0
 28 53  1  0
 31 54  1  0
M  CHG  1  13  -1
M  END
>  <meeko>  (114) 
{"free_energy": -6.33, "intermolecular_energy": -8.72, "internal_energy": -2.01, "cluster_size": 253, "cluster_id": 8, "rank_in_cluster": 74}

$$$$

     RDKit          3D

 54 57  0  0  0  0  0  0  0  0999 V2000
   14.4610   42.5600   10.8540 C   0  0  0  0  0  0  0  0  0  0  0  0
   15.9730   42.5500   11.0870 C   0  0  0  0  0  0  0  0  0  0  0  0
   16.6390   42.5630    9.8340 O   0  0  0  0  0  0  0  0  0  0  0  0
   16.9910   41.4010    9.2430 C   0  0  0  0  0  0  0  0  0  0  0  0
   18.0630   40.8320    9.4530 O   0  0  0  0  0  0  0  0  0  0  0  0
   15.9750   40.9570    8.3870 N   0  0  0  0  0  0  0  0  0  0  0  0
   15.3720   41.8290    7.3730 C   0  0  0  0  0  0  0  0  0  0  0  0
   15.4390   39.5930    8.4850 C   0  0  0  0  0  0  0  0  0  0  0  0
   14.7610   39.3380    9.8100 C   0  0  0  0  0  0  0  0  0  0  0  0
   13.4090   39.3020   10.1000 C   0  0  0  0  0  0  0  0  0  0  0  0
   12.2330   39.4700    9.1890 C   0  0  0  0  0  0  0  0  0  0  0  0
   11.8800   40.6260    8.8720 O   0  0  0  0  0  0  0  0  0  0  0  0
   11.6060   38.4730    8.7690 O   0  0  0  0  0  1  0  0  0  0  0  0
   13.2460   39.0930   11.4860 N   0  0  0  0  0  0  0  0  0  0  0  0
   12.0000   38.9750   12.2490 C   0  0  0  0  0  0  0  0  0  0  0  0
   10.7620   39.5630   11.5580 C   0  0  0  0  0  0  0  0  0  0  0  0
   10.5440   40.9630   11.5280 C   0  0  0  0  0  0  0  0  0  0  0  0
    9.4120   41.5060   10.8960 C   0  0  0  0  0  0  0  0  0  0  0  0
    8.4750   40.6580   10.2840 C   0  0  0  0  0  0  0  0  0  0  0  0
    8.6690   39.2640   10.3020 C   0  0  0  0  0  0  0  0  0  0  0  0
    7.7170   38.4270    9.6830 C   0  0  0  0  0  0  0  0  0  0  0  0
    7.8890   37.0320    9.6890 C   0  0  0  0  0  0  0  0  0  0  0  0
    9.0160   36.4690   10.3140 C   0  0  0  0  0  0  0  0  0  0  0  0
    9.9690   37.2990   10.9350 C   0  0  0  0  0  0  0  0  0  0  0  0
    9.8120   38.7070   10.9380 C   0  0  0  0  0  0  0  0  0  0  0  0
   14.4960   38.9950   12.0840 C   0  0  0  0  0  0  0  0  0  0  0  0
   14.8830   38.8030   13.4260 C   0  0  0  0  0  0  0  0  0  0  0  0
   16.2460   38.7320   13.7590 C   0  0  0  0  0  0  0  0  0  0  0  0
   17.2160   38.8500   12.7490 C   0  0  0  0  0  0  0  0  0  0  0  0
   18.5320   38.7780   13.0630 F   0  0  0  0  0  0  0  0  0  0  0  0
   16.8220   39.0450   11.4120 C   0  0  0  0  0  0  0  0  0  0  0  0
   15.4570   39.1280   11.0460 C   0  0  0  0  0  0  0  0  0  0  0  0
   13.9407   42.5634   11.8232 H   0  0  0  0  0  0  0  0  0  0  0  0
   14.1835   43.4600   10.2857 H   0  0  0  0  0  0  0  0  0  0  0  0
   14.1716   41.6638   10.2857 H   0  0  0  0  0  0  0  0  0  0  0  0
   16.2617   43.4395   11.6662 H   0  0  0  0  0  0  0  0  0  0  0  0
   16.2546   41.6451   11.6455 H   0  0  0  0  0  0  0  0  0  0  0  0
   14.8136   42.6365    7.8690 H   0  0  0  0  0  0  0  0  0  0  0  0
   16.1639   42.2630    6.7448 H   0  0  0  0  0  0  0  0  0  0  0  0
   14.6864   41.2413    6.7448 H   0  0  0  0  0  0  0  0  0  0  0  0
   14.7069   39.4417    7.6780 H   0  0  0  0  0  0  0  0  0  0  0  0
   16.2828   38.8926    8.3982 H   0  0  0  0  0  0  0  0  0  0  0  0
   11.8128   37.9071   12.4350 H   0  0  0  0  0  0  0  0  0  0  0  0
   12.1456   39.5580   13.1704 H   0  0  0  0  0  0  0  0  0  0  0  0
   11.2717   41.6349   12.0066 H   0  0  0  0  0  0  0  0  0  0  0  0
    9.2601   42.5954   10.8808 H   0  0  0  0  0  0  0  0  0  0  0  0
    7.5888   41.0833    9.7902 H   0  0  0  0  0  0  0  0  0  0  0  0
    6.8362   38.8680    9.1935 H   0  0  0  0  0  0  0  0  0  0  0  0
    7.1441   36.3824    9.2061 H   0  0  0  0  0  0  0  0  0  0  0  0
    9.1534   35.3776   10.3178 H   0  0  0  0  0  0  0  0  0  0  0  0
   10.8457   36.8488   11.4236 H   0  0  0  0  0  0  0  0  0  0  0  0
   14.1186   38.7089   14.2114 H   0  0  0  0  0  0  0  0  0  0  0  0
   16.5524   38.5848   14.8051 H   0  0  0  0  0  0  0  0  0  0  0  0
   17.5932   39.1351   10.6328 H   0  0  0  0  0  0  0  0  0  0  0  0
  1  2  1  0
  2  3  1  0
  3  4  1  0
  4  5  2  0
  4  6  1  0
  6  7  1  0
  6  8  1  0
  8  9  1  0
  9 10  2  0
 10 11  1  0
 11 12  2  0
 11 13  1  0
 10 14  1  0
 14 15  1  0
 15 16  1  0
 16 17  2  0
 17 18  1  0
 18 19  2  0
 19 20  1  0
 20 21  2  0
 21 22  1  0
 22 23  2  0
 23 24  1  0
 24 25  2  0
 14 26  1  0
 26 27  2  0
 27 28  1  0
 28 29  2  0
 29 30  1  0
 29 31  1  0
 31 32  2  0
 32  9  1  0
 25 16  1  0
 32 26  1  0
 25 20  1  0
  1 33  1  0
  1 34  1  0
  1 35  1  0
  2 36  1  0
  2 37  1  0
  7 38  1  0
  7 39  1  0
  7 40  1  0
  8 41  1  0
  8 42  1  0
 15 43  1  0
 15 44  1  0
 17 45  1  0
 18 46  1  0
 19 47  1  0
 21 48  1  0
 22 49  1  0
 23 50  1  0
 24 51  1  0
 27 52  1  0
 28 53  1  0
 31 54  1  0
M  CHG  1  13  -1
M  END
>  <meeko>  (115) 
{"free_energy": -4.56, "intermolecular_energy": -6.95, "internal_energy": -1.99, "cluster_size": 14, "cluster_id": 95, "rank_in_cluster": 9}

$$$$

     RDKit          3D

 54 57  0  0  0  0  0  0  0  0999 V2000
   11.4580   41.9970   10.2760 C   0  0  0  0  0  0  0  0  0  0  0  0
   12.5970   41.7770   11.2740 C   0  0  0  0  0  0  0  0  0  0  0  0
   12.2620   42.3930   12.5080 O   0  0  0  0  0  0  0  0  0  0  0  0
   11.4790   41.7440   13.3970 C   0  0  0  0  0  0  0  0  0  0  0  0
   10.2570   41.6420   13.2770 O   0  0  0  0  0  0  0  0  0  0  0  0
   12.2530   41.2170   14.4390 N   0  0  0  0  0  0  0  0  0  0  0  0
   12.9590   42.0750   15.3980 C   0  0  0  0  0  0  0  0  0  0  0  0
   12.4200   39.7680   14.6070 C   0  0  0  0  0  0  0  0  0  0  0  0
   12.5170   39.0460   13.2830 C   0  0  0  0  0  0  0  0  0  0  0  0
   11.5230   38.3910   12.5780 C   0  0  0  0  0  0  0  0  0  0  0  0
   10.0690   38.2380   12.8970 C   0  0  0  0  0  0  0  0  0  0  0  0
    9.2870   39.1660   12.5980 O   0  0  0  0  0  0  0  0  0  0  0  0
    9.6490   37.2090   13.4710 O   0  0  0  0  0  1  0  0  0  0  0  0
   12.0920   37.8100   11.4240 N   0  0  0  0  0  0  0  0  0  0  0  0
   11.4280   37.0310   10.3750 C   0  0  0  0  0  0  0  0  0  0  0  0
   10.1820   37.6920    9.7720 C   0  0  0  0  0  0  0  0  0  0  0  0
   10.0770   39.1030    9.6870 C   0  0  0  0  0  0  0  0  0  0  0  0
    8.9370   39.7120    9.1350 C   0  0  0  0  0  0  0  0  0  0  0  0
    7.8790   38.9220    8.6590 C   0  0  0  0  0  0  0  0  0  0  0  0
    7.9580   37.5180    8.7330 C   0  0  0  0  0  0  0  0  0  0  0  0
    6.8860   36.7400    8.2510 C   0  0  0  0  0  0  0  0  0  0  0  0
    6.9430   35.3370    8.3160 C   0  0  0  0  0  0  0  0  0  0  0  0
    8.0750   34.7080    8.8630 C   0  0  0  0  0  0  0  0  0  0  0  0
    9.1490   35.4790    9.3480 C   0  0  0  0  0  0  0  0  0  0  0  0
    9.1080   36.8940    9.2900 C   0  0  0  0  0  0  0  0  0  0  0  0
   13.4510   38.0930   11.3920 C   0  0  0  0  0  0  0  0  0  0  0  0
   14.4630   37.7390   10.4760 C   0  0  0  0  0  0  0  0  0  0  0  0
   15.7820   38.1770   10.6850 C   0  0  0  0  0  0  0  0  0  0  0  0
   16.0840   38.9670   11.8080 C   0  0  0  0  0  0  0  0  0  0  0  0
   17.3520   39.3950   12.0130 F   0  0  0  0  0  0  0  0  0  0  0  0
   15.0680   39.3130   12.7210 C   0  0  0  0  0  0  0  0  0  0  0  0
   13.7320   38.8820   12.5400 C   0  0  0  0  0  0  0  0  0  0  0  0
   10.5210   42.1780   10.8231 H   0  0  0  0  0  0  0  0  0  0  0  0
   11.6875   42.8674    9.6438 H   0  0  0  0  0  0  0  0  0  0  0  0
   11.3468   41.1037    9.6438 H   0  0  0  0  0  0  0  0  0  0  0  0
   12.7463   40.6984   11.4299 H   0  0  0  0  0  0  0  0  0  0  0  0
   13.5240   42.2191   10.8800 H   0  0  0  0  0  0  0  0  0  0  0  0
   12.7048   41.7661   16.4227 H   0  0  0  0  0  0  0  0  0  0  0  0
   14.0442   41.9803   15.2450 H   0  0  0  0  0  0  0  0  0  0  0  0
   12.6571   43.1216   15.2450 H   0  0  0  0  0  0  0  0  0  0  0  0
   13.3403   39.5818   15.1800 H   0  0  0  0  0  0  0  0  0  0  0  0
   11.5343   39.3856   15.1355 H   0  0  0  0  0  0  0  0  0  0  0  0
   12.1520   36.8625    9.5641 H   0  0  0  0  0  0  0  0  0  0  0  0
   11.0845   36.1009   10.8514 H   0  0  0  0  0  0  0  0  0  0  0  0
   10.9002   39.7308   10.0587 H   0  0  0  0  0  0  0  0  0  0  0  0
    8.8739   40.8086    9.0760 H   0  0  0  0  0  0  0  0  0  0  0  0
    6.9872   39.4001    8.2277 H   0  0  0  0  0  0  0  0  0  0  0  0
    6.0010   37.2329    7.8222 H   0  0  0  0  0  0  0  0  0  0  0  0
    6.1042   34.7329    7.9399 H   0  0  0  0  0  0  0  0  0  0  0  0
    8.1220   33.6101    8.9123 H   0  0  0  0  0  0  0  0  0  0  0  0
   10.0292   34.9773    9.7765 H   0  0  0  0  0  0  0  0  0  0  0  0
   14.2204   37.1209    9.5990 H   0  0  0  0  0  0  0  0  0  0  0  0
   16.5745   37.9029    9.9731 H   0  0  0  0  0  0  0  0  0  0  0  0
   15.3190   39.9324   13.5947 H   0  0  0  0  0  0  0  0  0  0  0  0
  1  2  1  0
  2  3  1  0
  3  4  1  0
  4  5  2  0
  4  6  1  0
  6  7  1  0
  6  8  1  0
  8  9  1  0
  9 10  2  0
 10 11  1  0
 11 12  2  0
 11 13  1  0
 10 14  1  0
 14 15  1  0
 15 16  1  0
 16 17  2  0
 17 18  1  0
 18 19  2  0
 19 20  1  0
 20 21  2  0
 21 22  1  0
 22 23  2  0
 23 24  1  0
 24 25  2  0
 14 26  1  0
 26 27  2  0
 27 28  1  0
 28 29  2  0
 29 30  1  0
 29 31  1  0
 31 32  2  0
 32  9  1  0
 25 16  1  0
 32 26  1  0
 25 20  1  0
  1 33  1  0
  1 34  1  0
  1 35  1  0
  2 36  1  0
  2 37  1  0
  7 38  1  0
  7 39  1  0
  7 40  1  0
  8 41  1  0
  8 42  1  0
 15 43  1  0
 15 44  1  0
 17 45  1  0
 18 46  1  0
 19 47  1  0
 21 48  1  0
 22 49  1  0
 23 50  1  0
 24 51  1  0
 27 52  1  0
 28 53  1  0
 31 54  1  0
M  CHG  1  13  -1
M  END
>  <meeko>  (116) 
{"free_energy": -5.67, "intermolecular_energy": -8.06, "internal_energy": -2.41, "cluster_size": 50, "cluster_id": 39, "rank_in_cluster": 27}

$$$$

     RDKit          3D

 54 57  0  0  0  0  0  0  0  0999 V2000
   12.8690   34.6720   16.3820 C   0  0  0  0  0  0  0  0  0  0  0  0
   11.5030   35.3170   16.6320 C   0  0  0  0  0  0  0  0  0  0  0  0
   11.0540   35.9360   15.4380 O   0  0  0  0  0  0  0  0  0  0  0  0
   10.3250   35.2340   14.5440 C   0  0  0  0  0  0  0  0  0  0  0  0
   10.5510   34.0560   14.2610 O   0  0  0  0  0  0  0  0  0  0  0  0
    9.3010   36.0280   14.0120 N   0  0  0  0  0  0  0  0  0  0  0  0
    8.5360   36.9700   14.8370 C   0  0  0  0  0  0  0  0  0  0  0  0
    8.9210   35.9350   12.5960 C   0  0  0  0  0  0  0  0  0  0  0  0
    9.2280   37.2040   11.8370 C   0  0  0  0  0  0  0  0  0  0  0  0
    9.9910   38.2880   12.2320 C   0  0  0  0  0  0  0  0  0  0  0  0
   10.7580   38.5030   13.4990 C   0  0  0  0  0  0  0  0  0  0  0  0
   10.2760   39.2580   14.3720 O   0  0  0  0  0  0  0  0  0  0  0  0
   11.8680   37.9540   13.6730 O   0  0  0  0  0  1  0  0  0  0  0  0
    9.9440   39.2710   11.2210 N   0  0  0  0  0  0  0  0  0  0  0  0
   10.6040   40.5790   11.1900 C   0  0  0  0  0  0  0  0  0  0  0  0
   11.6390   40.7530   10.0710 C   0  0  0  0  0  0  0  0  0  0  0  0
   11.5550   41.8410    9.1670 C   0  0  0  0  0  0  0  0  0  0  0  0
   12.5010   42.0050    8.1400 C   0  0  0  0  0  0  0  0  0  0  0  0
   13.5480   41.0810    7.9970 C   0  0  0  0  0  0  0  0  0  0  0  0
   13.6530   39.9900    8.8810 C   0  0  0  0  0  0  0  0  0  0  0  0
   14.7110   39.0720    8.7220 C   0  0  0  0  0  0  0  0  0  0  0  0
   14.8350   37.9750    9.5930 C   0  0  0  0  0  0  0  0  0  0  0  0
   13.8990   37.7950   10.6280 C   0  0  0  0  0  0  0  0  0  0  0  0
   12.8400   38.7080   10.7910 C   0  0  0  0  0  0  0  0  0  0  0  0
   12.7000   39.8180    9.9230 C   0  0  0  0  0  0  0  0  0  0  0  0
    9.1490   38.8160   10.1770 C   0  0  0  0  0  0  0  0  0  0  0  0
    8.7720   39.4090    8.9550 C   0  0  0  0  0  0  0  0  0  0  0  0
    7.9470   38.7070    8.0600 C   0  0  0  0  0  0  0  0  0  0  0  0
    7.5040   37.4140    8.3890 C   0  0  0  0  0  0  0  0  0  0  0  0
    6.7120   36.7310    7.5290 F   0  0  0  0  0  0  0  0  0  0  0  0
    7.8810   36.8300    9.6130 C   0  0  0  0  0  0  0  0  0  0  0  0
    8.7060   37.5150   10.5380 C   0  0  0  0  0  0  0  0  0  0  0  0
   13.3492   34.4452   17.3453 H   0  0  0  0  0  0  0  0  0  0  0  0
   12.7361   33.7415   15.8105 H   0  0  0  0  0  0  0  0  0  0  0  0
   13.5030   35.3659   15.8105 H   0  0  0  0  0  0  0  0  0  0  0  0
   10.7824   34.5449   16.9396 H   0  0  0  0  0  0  0  0  0  0  0  0
   11.5904   36.0706   17.4286 H   0  0  0  0  0  0  0  0  0  0  0  0
    8.7124   36.7528   15.9008 H   0  0  0  0  0  0  0  0  0  0  0  0
    8.8583   37.9979   14.6143 H   0  0  0  0  0  0  0  0  0  0  0  0
    7.4639   36.8655   14.6143 H   0  0  0  0  0  0  0  0  0  0  0  0
    9.4747   35.1039   12.1348 H   0  0  0  0  0  0  0  0  0  0  0  0
    7.8347   35.7684   12.5487 H   0  0  0  0  0  0  0  0  0  0  0  0
    9.8296   41.3497   11.0623 H   0  0  0  0  0  0  0  0  0  0  0  0
   11.1554   40.6692   12.1375 H   0  0  0  0  0  0  0  0  0  0  0  0
   10.7367   42.5688    9.2704 H   0  0  0  0  0  0  0  0  0  0  0  0
   12.4207   42.8570    7.4488 H   0  0  0  0  0  0  0  0  0  0  0  0
   14.2877   41.2094    7.1930 H   0  0  0  0  0  0  0  0  0  0  0  0
   15.4427   39.2144    7.9131 H   0  0  0  0  0  0  0  0  0  0  0  0
   15.6611   37.2599    9.4656 H   0  0  0  0  0  0  0  0  0  0  0  0
   13.9950   36.9386   11.3116 H   0  0  0  0  0  0  0  0  0  0  0  0
   12.1126   38.5574   11.6023 H   0  0  0  0  0  0  0  0  0  0  0  0
    9.1233   40.4203    8.7023 H   0  0  0  0  0  0  0  0  0  0  0  0
    7.6491   39.1671    7.1063 H   0  0  0  0  0  0  0  0  0  0  0  0
    7.5264   35.8177    9.8568 H   0  0  0  0  0  0  0  0  0  0  0  0
  1  2  1  0
  2  3  1  0
  3  4  1  0
  4  5  2  0
  4  6  1  0
  6  7  1  0
  6  8  1  0
  8  9  1  0
  9 10  2  0
 10 11  1  0
 11 12  2  0
 11 13  1  0
 10 14  1  0
 14 15  1  0
 15 16  1  0
 16 17  2  0
 17 18  1  0
 18 19  2  0
 19 20  1  0
 20 21  2  0
 21 22  1  0
 22 23  2  0
 23 24  1  0
 24 25  2  0
 14 26  1  0
 26 27  2  0
 27 28  1  0
 28 29  2  0
 29 30  1  0
 29 31  1  0
 31 32  2  0
 32  9  1  0
 25 16  1  0
 32 26  1  0
 25 20  1  0
  1 33  1  0
  1 34  1  0
  1 35  1  0
  2 36  1  0
  2 37  1  0
  7 38  1  0
  7 39  1  0
  7 40  1  0
  8 41  1  0
  8 42  1  0
 15 43  1  0
 15 44  1  0
 17 45  1  0
 18 46  1  0
 19 47  1  0
 21 48  1  0
 22 49  1  0
 23 50  1  0
 24 51  1  0
 27 52  1  0
 28 53  1  0
 31 54  1  0
M  CHG  1  13  -1
M  END
>  <meeko>  (117) 
{"free_energy": -6.37, "intermolecular_energy": -8.76, "internal_energy": -1.68, "cluster_size": 251, "cluster_id": 26, "rank_in_cluster": 24}

$$$$

     RDKit          3D

 54 57  0  0  0  0  0  0  0  0999 V2000
   10.6960   33.7420   15.2450 C   0  0  0  0  0  0  0  0  0  0  0  0
    9.3480   34.3440   14.8400 C   0  0  0  0  0  0  0  0  0  0  0  0
    9.5680   35.5860   14.1910 O   0  0  0  0  0  0  0  0  0  0  0  0
    9.4050   36.7420   14.8700 C   0  0  0  0  0  0  0  0  0  0  0  0
    8.3020   37.1980   15.1780 O   0  0  0  0  0  0  0  0  0  0  0  0
   10.6480   37.3180   15.1650 N   0  0  0  0  0  0  0  0  0  0  0  0
   11.3430   37.0660   16.4320 C   0  0  0  0  0  0  0  0  0  0  0  0
   11.3060   38.2320   14.2220 C   0  0  0  0  0  0  0  0  0  0  0  0
   10.5020   39.4900   13.9900 C   0  0  0  0  0  0  0  0  0  0  0  0
   10.0500   40.4130   14.9160 C   0  0  0  0  0  0  0  0  0  0  0  0
   10.2520   40.4550   16.3980 C   0  0  0  0  0  0  0  0  0  0  0  0
   11.4060   40.6330   16.8420 O   0  0  0  0  0  0  0  0  0  0  0  0
    9.2860   40.2950   17.1760 O   0  0  0  0  0  1  0  0  0  0  0  0
    9.2860   41.3920   14.2460 N   0  0  0  0  0  0  0  0  0  0  0  0
    8.6160   42.5680   14.8090 C   0  0  0  0  0  0  0  0  0  0  0  0
    8.9140   43.8880   14.0870 C   0  0  0  0  0  0  0  0  0  0  0  0
   10.2410   44.3760   13.9840 C   0  0  0  0  0  0  0  0  0  0  0  0
   10.5190   45.5850   13.3230 C   0  0  0  0  0  0  0  0  0  0  0  0
    9.4740   46.3300   12.7540 C   0  0  0  0  0  0  0  0  0  0  0  0
    8.1480   45.8680   12.8440 C   0  0  0  0  0  0  0  0  0  0  0  0
    7.1110   46.6300   12.2660 C   0  0  0  0  0  0  0  0  0  0  0  0
    5.7780   46.1870   12.3440 C   0  0  0  0  0  0  0  0  0  0  0  0
    5.4800   44.9800   13.0000 C   0  0  0  0  0  0  0  0  0  0  0  0
    6.5100   44.2150   13.5800 C   0  0  0  0  0  0  0  0  0  0  0  0
    7.8580   44.6460   13.5100 C   0  0  0  0  0  0  0  0  0  0  0  0
    9.2490   41.0950   12.8900 C   0  0  0  0  0  0  0  0  0  0  0  0
    8.6190   41.7370   11.8040 C   0  0  0  0  0  0  0  0  0  0  0  0
    8.7550   41.2160   10.5060 C   0  0  0  0  0  0  0  0  0  0  0  0
    9.5230   40.0560   10.2990 C   0  0  0  0  0  0  0  0  0  0  0  0
    9.6620   39.5510    9.0500 F   0  0  0  0  0  0  0  0  0  0  0  0
   10.1460   39.4180   11.3890 C   0  0  0  0  0  0  0  0  0  0  0  0
   10.0200   39.9160   12.7090 C   0  0  0  0  0  0  0  0  0  0  0  0
   10.7683   33.7097   16.3421 H   0  0  0  0  0  0  0  0  0  0  0  0
   10.7779   32.7218   14.8419 H   0  0  0  0  0  0  0  0  0  0  0  0
   11.5104   34.3620   14.8419 H   0  0  0  0  0  0  0  0  0  0  0  0
    8.8295   33.6575   14.1546 H   0  0  0  0  0  0  0  0  0  0  0  0
    8.7287   34.4996   15.7357 H   0  0  0  0  0  0  0  0  0  0  0  0
   10.6746   37.3084   17.2714 H   0  0  0  0  0  0  0  0  0  0  0  0
   11.6316   36.0060   16.4874 H   0  0  0  0  0  0  0  0  0  0  0  0
   12.2439   37.6947   16.4874 H   0  0  0  0  0  0  0  0  0  0  0  0
   12.2901   38.5104   14.6270 H   0  0  0  0  0  0  0  0  0  0  0  0
   11.4021   37.7106   13.2582 H   0  0  0  0  0  0  0  0  0  0  0  0
    7.5305   42.3944   14.7696 H   0  0  0  0  0  0  0  0  0  0  0  0
    9.0017   42.6823   15.8328 H   0  0  0  0  0  0  0  0  0  0  0  0
   11.0659   43.7996   14.4282 H   0  0  0  0  0  0  0  0  0  0  0  0
   11.5552   45.9473   13.2516 H   0  0  0  0  0  0  0  0  0  0  0  0
    9.6921   47.2762   12.2371 H   0  0  0  0  0  0  0  0  0  0  0  0
    7.3455   47.5740   11.7524 H   0  0  0  0  0  0  0  0  0  0  0  0
    4.9713   46.7834   11.8929 H   0  0  0  0  0  0  0  0  0  0  0  0
    4.4383   44.6319   13.0604 H   0  0  0  0  0  0  0  0  0  0  0  0
    6.2657   43.2730   14.0928 H   0  0  0  0  0  0  0  0  0  0  0  0
    8.0215   42.6450   11.9728 H   0  0  0  0  0  0  0  0  0  0  0  0
    8.2635   41.7127    9.6565 H   0  0  0  0  0  0  0  0  0  0  0  0
   10.7442   38.5121   11.2112 H   0  0  0  0  0  0  0  0  0  0  0  0
  1  2  1  0
  2  3  1  0
  3  4  1  0
  4  5  2  0
  4  6  1  0
  6  7  1  0
  6  8  1  0
  8  9  1  0
  9 10  2  0
 10 11  1  0
 11 12  2  0
 11 13  1  0
 10 14  1  0
 14 15  1  0
 15 16  1  0
 16 17  2  0
 17 18  1  0
 18 19  2  0
 19 20  1  0
 20 21  2  0
 21 22  1  0
 22 23  2  0
 23 24  1  0
 24 25  2  0
 14 26  1  0
 26 27  2  0
 27 28  1  0
 28 29  2  0
 29 30  1  0
 29 31  1  0
 31 32  2  0
 32  9  1  0
 25 16  1  0
 32 26  1  0
 25 20  1  0
  1 33  1  0
  1 34  1  0
  1 35  1  0
  2 36  1  0
  2 37  1  0
  7 38  1  0
  7 39  1  0
  7 40  1  0
  8 41  1  0
  8 42  1  0
 15 43  1  0
 15 44  1  0
 17 45  1  0
 18 46  1  0
 19 47  1  0
 21 48  1  0
 22 49  1  0
 23 50  1  0
 24 51  1  0
 27 52  1  0
 28 53  1  0
 31 54  1  0
M  CHG  1  13  -1
M  END
>  <meeko>  (118) 
{"free_energy": -4.53, "intermolecular_energy": -6.92, "internal_energy": -1.95, "cluster_size": 35, "cluster_id": 50, "rank_in_cluster": 32}

$$$$

     RDKit          3D

 54 57  0  0  0  0  0  0  0  0999 V2000
   15.0830   43.3980   14.9090 C   0  0  0  0  0  0  0  0  0  0  0  0
   15.9030   42.1060   14.8650 C   0  0  0  0  0  0  0  0  0  0  0  0
   15.0220   40.9940   14.8410 O   0  0  0  0  0  0  0  0  0  0  0  0
   15.0300   40.1030   15.8550 C   0  0  0  0  0  0  0  0  0  0  0  0
   14.6270   40.3640   16.9900 O   0  0  0  0  0  0  0  0  0  0  0  0
   15.5450   38.8730   15.4250 N   0  0  0  0  0  0  0  0  0  0  0  0
   16.3940   38.7570   14.2330 C   0  0  0  0  0  0  0  0  0  0  0  0
   15.2350   37.6260   16.1360 C   0  0  0  0  0  0  0  0  0  0  0  0
   13.7900   37.5600   16.5710 C   0  0  0  0  0  0  0  0  0  0  0  0
   13.2530   36.9890   17.7110 C   0  0  0  0  0  0  0  0  0  0  0  0
   13.9420   36.3080   18.8520 C   0  0  0  0  0  0  0  0  0  0  0  0
   14.1530   36.9570   19.8990 O   0  0  0  0  0  0  0  0  0  0  0  0
   14.3160   35.1190   18.7510 O   0  0  0  0  0  1  0  0  0  0  0  0
   11.8480   37.1120   17.6630 N   0  0  0  0  0  0  0  0  0  0  0  0
   10.8600   36.6660   18.6500 C   0  0  0  0  0  0  0  0  0  0  0  0
    9.5110   36.2340   18.0620 C   0  0  0  0  0  0  0  0  0  0  0  0
    8.3030   36.8300   18.5020 C   0  0  0  0  0  0  0  0  0  0  0  0
    7.0640   36.4360   17.9660 C   0  0  0  0  0  0  0  0  0  0  0  0
    7.0110   35.4380   16.9810 C   0  0  0  0  0  0  0  0  0  0  0  0
    8.1970   34.8290   16.5280 C   0  0  0  0  0  0  0  0  0  0  0  0
    8.1240   33.8270   15.5380 C   0  0  0  0  0  0  0  0  0  0  0  0
    9.2960   33.2060   15.0710 C   0  0  0  0  0  0  0  0  0  0  0  0
   10.5450   33.5860   15.5940 C   0  0  0  0  0  0  0  0  0  0  0  0
   10.6240   34.5850   16.5830 C   0  0  0  0  0  0  0  0  0  0  0  0
    9.4540   35.2220   17.0650 C   0  0  0  0  0  0  0  0  0  0  0  0
   11.4850   37.7630   16.4910 C   0  0  0  0  0  0  0  0  0  0  0  0
   10.2260   38.1160   15.9630 C   0  0  0  0  0  0  0  0  0  0  0  0
   10.1470   38.7910   14.7340 C   0  0  0  0  0  0  0  0  0  0  0  0
   11.3250   39.1130   14.0380 C   0  0  0  0  0  0  0  0  0  0  0  0
   11.2550   39.7670   12.8540 F   0  0  0  0  0  0  0  0  0  0  0  0
   12.5780   38.7530   14.5690 C   0  0  0  0  0  0  0  0  0  0  0  0
   12.6900   38.0660   15.8020 C   0  0  0  0  0  0  0  0  0  0  0  0
   14.9026   43.6823   15.9562 H   0  0  0  0  0  0  0  0  0  0  0  0
   15.6369   44.2013   14.4012 H   0  0  0  0  0  0  0  0  0  0  0  0
   14.1203   43.2388   14.4012 H   0  0  0  0  0  0  0  0  0  0  0  0
   16.5293   42.0986   13.9608 H   0  0  0  0  0  0  0  0  0  0  0  0
   16.5476   42.0473   15.7544 H   0  0  0  0  0  0  0  0  0  0  0  0
   17.4404   38.6140   14.5406 H   0  0  0  0  0  0  0  0  0  0  0  0
   16.0673   37.8951   13.6326 H   0  0  0  0  0  0  0  0  0  0  0  0
   16.3105   39.6749   13.6326 H   0  0  0  0  0  0  0  0  0  0  0  0
   15.4429   36.7768   15.4685 H   0  0  0  0  0  0  0  0  0  0  0  0
   15.8612   37.5884   17.0396 H   0  0  0  0  0  0  0  0  0  0  0  0
   11.2845   35.8108   19.1963 H   0  0  0  0  0  0  0  0  0  0  0  0
   10.6529   37.5337   19.2936 H   0  0  0  0  0  0  0  0  0  0  0  0
    8.3349   37.6126   19.2744 H   0  0  0  0  0  0  0  0  0  0  0  0
    6.1363   36.9102   18.3189 H   0  0  0  0  0  0  0  0  0  0  0  0
    6.0414   35.1309   16.5621 H   0  0  0  0  0  0  0  0  0  0  0  0
    7.1466   33.5302   15.1297 H   0  0  0  0  0  0  0  0  0  0  0  0
    9.2361   32.4251   14.2986 H   0  0  0  0  0  0  0  0  0  0  0  0
   11.4627   33.1014   15.2294 H   0  0  0  0  0  0  0  0  0  0  0  0
   11.6057   34.8743   16.9862 H   0  0  0  0  0  0  0  0  0  0  0  0
    9.3074   37.8631   16.5128 H   0  0  0  0  0  0  0  0  0  0  0  0
    9.1669   39.0667   14.3176 H   0  0  0  0  0  0  0  0  0  0  0  0
   13.4914   39.0114   14.0131 H   0  0  0  0  0  0  0  0  0  0  0  0
  1  2  1  0
  2  3  1  0
  3  4  1  0
  4  5  2  0
  4  6  1  0
  6  7  1  0
  6  8  1  0
  8  9  1  0
  9 10  2  0
 10 11  1  0
 11 12  2  0
 11 13  1  0
 10 14  1  0
 14 15  1  0
 15 16  1  0
 16 17  2  0
 17 18  1  0
 18 19  2  0
 19 20  1  0
 20 21  2  0
 21 22  1  0
 22 23  2  0
 23 24  1  0
 24 25  2  0
 14 26  1  0
 26 27  2  0
 27 28  1  0
 28 29  2  0
 29 30  1  0
 29 31  1  0
 31 32  2  0
 32  9  1  0
 25 16  1  0
 32 26  1  0
 25 20  1  0
  1 33  1  0
  1 34  1  0
  1 35  1  0
  2 36  1  0
  2 37  1  0
  7 38  1  0
  7 39  1  0
  7 40  1  0
  8 41  1  0
  8 42  1  0
 15 43  1  0
 15 44  1  0
 17 45  1  0
 18 46  1  0
 19 47  1  0
 21 48  1  0
 22 49  1  0
 23 50  1  0
 24 51  1  0
 27 52  1  0
 28 53  1  0
 31 54  1  0
M  CHG  1  13  -1
M  END
>  <meeko>  (119) 
{"free_energy": -4.46, "intermolecular_energy": -6.84, "internal_energy": -1.77, "cluster_size": 75, "cluster_id": 78, "rank_in_cluster": 55}

$$$$

     RDKit          3D

 54 57  0  0  0  0  0  0  0  0999 V2000
   10.2680   41.0710   14.4240 C   0  0  0  0  0  0  0  0  0  0  0  0
   11.6330   41.5520   13.9260 C   0  0  0  0  0  0  0  0  0  0  0  0
   11.6360   41.5630   12.5080 O   0  0  0  0  0  0  0  0  0  0  0  0
   12.7980   41.4290   11.8330 C   0  0  0  0  0  0  0  0  0  0  0  0
   13.0870   42.1010   10.8410 O   0  0  0  0  0  0  0  0  0  0  0  0
   13.5990   40.4430   12.4230 N   0  0  0  0  0  0  0  0  0  0  0  0
   14.6930   40.7740   13.3420 C   0  0  0  0  0  0  0  0  0  0  0  0
   13.3970   39.0190   12.1250 C   0  0  0  0  0  0  0  0  0  0  0  0
   11.9340   38.6550   12.0340 C   0  0  0  0  0  0  0  0  0  0  0  0
   11.0430   38.9000   11.0040 C   0  0  0  0  0  0  0  0  0  0  0  0
   11.2720   39.5580    9.6800 C   0  0  0  0  0  0  0  0  0  0  0  0
   10.9190   40.7470    9.5320 O   0  0  0  0  0  0  0  0  0  0  0  0
   11.7890   38.9230    8.7350 O   0  0  0  0  0  1  0  0  0  0  0  0
    9.7660   38.4350   11.3880 N   0  0  0  0  0  0  0  0  0  0  0  0
    8.5170   38.4690   10.6230 C   0  0  0  0  0  0  0  0  0  0  0  0
    8.3150   37.2880    9.6650 C   0  0  0  0  0  0  0  0  0  0  0  0
    8.6980   35.9760   10.0400 C   0  0  0  0  0  0  0  0  0  0  0  0
    8.5140   34.8900    9.1660 C   0  0  0  0  0  0  0  0  0  0  0  0
    7.9460   35.0970    7.8990 C   0  0  0  0  0  0  0  0  0  0  0  0
    7.5580   36.3910    7.5030 C   0  0  0  0  0  0  0  0  0  0  0  0
    6.9890   36.5810    6.2260 C   0  0  0  0  0  0  0  0  0  0  0  0
    6.5950   37.8650    5.8090 C   0  0  0  0  0  0  0  0  0  0  0  0
    6.7700   38.9630    6.6700 C   0  0  0  0  0  0  0  0  0  0  0  0
    7.3380   38.7810    7.9450 C   0  0  0  0  0  0  0  0  0  0  0  0
    7.7400   37.4940    8.3810 C   0  0  0  0  0  0  0  0  0  0  0  0
    9.8410   37.8930   12.6650 C   0  0  0  0  0  0  0  0  0  0  0  0
    8.8630   37.3160   13.4990 C   0  0  0  0  0  0  0  0  0  0  0  0
    9.2210   36.8290   14.7680 C   0  0  0  0  0  0  0  0  0  0  0  0
   10.5570   36.9200   15.1960 C   0  0  0  0  0  0  0  0  0  0  0  0
   10.9100   36.4490   16.4160 F   0  0  0  0  0  0  0  0  0  0  0  0
   11.5290   37.5010   14.3580 C   0  0  0  0  0  0  0  0  0  0  0  0
   11.1960   38.0060   13.0780 C   0  0  0  0  0  0  0  0  0  0  0  0
   10.2593   41.0679   15.5240 H   0  0  0  0  0  0  0  0  0  0  0  0
    9.4834   41.7468   14.0530 H   0  0  0  0  0  0  0  0  0  0  0  0
   10.0804   40.0526   14.0530 H   0  0  0  0  0  0  0  0  0  0  0  0
   11.8245   42.5679   14.3020 H   0  0  0  0  0  0  0  0  0  0  0  0
   12.4188   40.8745   14.2914 H   0  0  0  0  0  0  0  0  0  0  0  0
   14.3445   40.6686   14.3800 H   0  0  0  0  0  0  0  0  0  0  0  0
   15.5376   40.0912   13.1676 H   0  0  0  0  0  0  0  0  0  0  0  0
   15.0174   41.8105   13.1676 H   0  0  0  0  0  0  0  0  0  0  0  0
   13.8799   38.7865   11.1644 H   0  0  0  0  0  0  0  0  0  0  0  0
   13.8384   38.4369   12.9474 H   0  0  0  0  0  0  0  0  0  0  0  0
    7.6795   38.4779   11.3361 H   0  0  0  0  0  0  0  0  0  0  0  0
    8.5636   39.3713    9.9955 H   0  0  0  0  0  0  0  0  0  0  0  0
    9.1460   35.8047   11.0299 H   0  0  0  0  0  0  0  0  0  0  0  0
    8.8151   33.8782    9.4751 H   0  0  0  0  0  0  0  0  0  0  0  0
    7.8040   34.2473    7.2150 H   0  0  0  0  0  0  0  0  0  0  0  0
    6.8530   35.7211    5.5536 H   0  0  0  0  0  0  0  0  0  0  0  0
    6.1515   38.0099    4.8129 H   0  0  0  0  0  0  0  0  0  0  0  0
    6.4618   39.9680    6.3459 H   0  0  0  0  0  0  0  0  0  0  0  0
    7.4712   39.6470    8.6100 H   0  0  0  0  0  0  0  0  0  0  0  0
    7.8197   37.2467   13.1572 H   0  0  0  0  0  0  0  0  0  0  0  0
    8.4600   36.3792   15.4226 H   0  0  0  0  0  0  0  0  0  0  0  0
   12.5706   37.5637   14.7062 H   0  0  0  0  0  0  0  0  0  0  0  0
  1  2  1  0
  2  3  1  0
  3  4  1  0
  4  5  2  0
  4  6  1  0
  6  7  1  0
  6  8  1  0
  8  9  1  0
  9 10  2  0
 10 11  1  0
 11 12  2  0
 11 13  1  0
 10 14  1  0
 14 15  1  0
 15 16  1  0
 16 17  2  0
 17 18  1  0
 18 19  2  0
 19 20  1  0
 20 21  2  0
 21 22  1  0
 22 23  2  0
 23 24  1  0
 24 25  2  0
 14 26  1  0
 26 27  2  0
 27 28  1  0
 28 29  2  0
 29 30  1  0
 29 31  1  0
 31 32  2  0
 32  9  1  0
 25 16  1  0
 32 26  1  0
 25 20  1  0
  1 33  1  0
  1 34  1  0
  1 35  1  0
  2 36  1  0
  2 37  1  0
  7 38  1  0
  7 39  1  0
  7 40  1  0
  8 41  1  0
  8 42  1  0
 15 43  1  0
 15 44  1  0
 17 45  1  0
 18 46  1  0
 19 47  1  0
 21 48  1  0
 22 49  1  0
 23 50  1  0
 24 51  1  0
 27 52  1  0
 28 53  1  0
 31 54  1  0
M  CHG  1  13  -1
M  END
>  <meeko>  (120) 
{"free_energy": -6.61, "intermolecular_energy": -9.0, "internal_energy": -2.05, "cluster_size": 292, "cluster_id": 10, "rank_in_cluster": 49}

$$$$

     RDKit          3D

 54 57  0  0  0  0  0  0  0  0999 V2000
   14.7410   35.9290   17.5900 C   0  0  0  0  0  0  0  0  0  0  0  0
   14.0540   36.8680   16.5960 C   0  0  0  0  0  0  0  0  0  0  0  0
   12.9670   37.5140   17.2380 O   0  0  0  0  0  0  0  0  0  0  0  0
   12.6320   38.7770   16.8940 C   0  0  0  0  0  0  0  0  0  0  0  0
   13.4210   39.7220   16.9360 O   0  0  0  0  0  0  0  0  0  0  0  0
   11.2920   38.8370   16.4900 N   0  0  0  0  0  0  0  0  0  0  0  0
   10.5470   40.0990   16.4460 C   0  0  0  0  0  0  0  0  0  0  0  0
   10.5540   37.6230   16.1160 C   0  0  0  0  0  0  0  0  0  0  0  0
   10.4250   37.4710   14.6190 C   0  0  0  0  0  0  0  0  0  0  0  0
    9.5170   36.7140   13.8990 C   0  0  0  0  0  0  0  0  0  0  0  0
    8.3870   35.8620   14.3870 C   0  0  0  0  0  0  0  0  0  0  0  0
    8.1580   34.7800   13.8060 O   0  0  0  0  0  0  0  0  0  0  0  0
    7.6750   36.2360   15.3440 O   0  0  0  0  0  1  0  0  0  0  0  0
    9.8170   36.8290   12.5250 N   0  0  0  0  0  0  0  0  0  0  0  0
    9.1250   36.2150   11.3880 C   0  0  0  0  0  0  0  0  0  0  0  0
    8.6250   37.2050   10.3280 C   0  0  0  0  0  0  0  0  0  0  0  0
    8.6330   38.6010   10.5760 C   0  0  0  0  0  0  0  0  0  0  0  0
    8.1750   39.5110    9.6080 C   0  0  0  0  0  0  0  0  0  0  0  0
    7.6990   39.0430    8.3730 C   0  0  0  0  0  0  0  0  0  0  0  0
    7.6790   37.6610    8.1030 C   0  0  0  0  0  0  0  0  0  0  0  0
    7.1970   37.2080    6.8570 C   0  0  0  0  0  0  0  0  0  0  0  0
    7.1680   35.8330    6.5660 C   0  0  0  0  0  0  0  0  0  0  0  0
    7.6220   34.9060    7.5210 C   0  0  0  0  0  0  0  0  0  0  0  0
    8.1040   35.3520    8.7670 C   0  0  0  0  0  0  0  0  0  0  0  0
    8.1410   36.7340    9.0770 C   0  0  0  0  0  0  0  0  0  0  0  0
   10.9190   37.6590   12.3650 C   0  0  0  0  0  0  0  0  0  0  0  0
   11.6190   38.0800   11.2160 C   0  0  0  0  0  0  0  0  0  0  0  0
   12.7170   38.9480   11.3430 C   0  0  0  0  0  0  0  0  0  0  0  0
   13.1090   39.3920   12.6170 C   0  0  0  0  0  0  0  0  0  0  0  0
   14.1640   40.2320   12.7460 F   0  0  0  0  0  0  0  0  0  0  0  0
   12.4080   38.9640   13.7610 C   0  0  0  0  0  0  0  0  0  0  0  0
   11.3020   38.0850   13.6650 C   0  0  0  0  0  0  0  0  0  0  0  0
   14.5078   36.2477   18.6167 H   0  0  0  0  0  0  0  0  0  0  0  0
   14.3796   34.9018   17.4339 H   0  0  0  0  0  0  0  0  0  0  0  0
   15.8294   35.9625   17.4339 H   0  0  0  0  0  0  0  0  0  0  0  0
   14.7739   37.6217   16.2443 H   0  0  0  0  0  0  0  0  0  0  0  0
   13.6841   36.2893   15.7368 H   0  0  0  0  0  0  0  0  0  0  0  0
   10.3449   40.4414   17.4716 H   0  0  0  0  0  0  0  0  0  0  0  0
   11.1420   40.8578   15.9167 H   0  0  0  0  0  0  0  0  0  0  0  0
    9.5952   39.9446   15.9167 H   0  0  0  0  0  0  0  0  0  0  0  0
   11.0864   36.7476   16.5162 H   0  0  0  0  0  0  0  0  0  0  0  0
    9.5402   37.7019   16.5356 H   0  0  0  0  0  0  0  0  0  0  0  0
    9.8204   35.5152   10.9016 H   0  0  0  0  0  0  0  0  0  0  0  0
    8.2308   35.7233   11.7987 H   0  0  0  0  0  0  0  0  0  0  0  0
    9.0034   38.9775   11.5409 H   0  0  0  0  0  0  0  0  0  0  0  0
    8.1895   40.5907    9.8181 H   0  0  0  0  0  0  0  0  0  0  0  0
    7.3414   39.7562    7.6157 H   0  0  0  0  0  0  0  0  0  0  0  0
    6.8424   37.9336    6.1101 H   0  0  0  0  0  0  0  0  0  0  0  0
    6.7911   35.4831    5.5936 H   0  0  0  0  0  0  0  0  0  0  0  0
    7.6006   33.8298    7.2943 H   0  0  0  0  0  0  0  0  0  0  0  0
    8.4557   34.6190    9.5079 H   0  0  0  0  0  0  0  0  0  0  0  0
   11.3062   37.7296   10.2213 H   0  0  0  0  0  0  0  0  0  0  0  0
   13.2668   39.2781   10.4493 H   0  0  0  0  0  0  0  0  0  0  0  0
   12.7268   39.3206   14.7515 H   0  0  0  0  0  0  0  0  0  0  0  0
  1  2  1  0
  2  3  1  0
  3  4  1  0
  4  5  2  0
  4  6  1  0
  6  7  1  0
  6  8  1  0
  8  9  1  0
  9 10  2  0
 10 11  1  0
 11 12  2  0
 11 13  1  0
 10 14  1  0
 14 15  1  0
 15 16  1  0
 16 17  2  0
 17 18  1  0
 18 19  2  0
 19 20  1  0
 20 21  2  0
 21 22  1  0
 22 23  2  0
 23 24  1  0
 24 25  2  0
 14 26  1  0
 26 27  2  0
 27 28  1  0
 28 29  2  0
 29 30  1  0
 29 31  1  0
 31 32  2  0
 32  9  1  0
 25 16  1  0
 32 26  1  0
 25 20  1  0
  1 33  1  0
  1 34  1  0
  1 35  1  0
  2 36  1  0
  2 37  1  0
  7 38  1  0
  7 39  1  0
  7 40  1  0
  8 41  1  0
  8 42  1  0
 15 43  1  0
 15 44  1  0
 17 45  1  0
 18 46  1  0
 19 47  1  0
 21 48  1  0
 22 49  1  0
 23 50  1  0
 24 51  1  0
 27 52  1  0
 28 53  1  0
 31 54  1  0
M  CHG  1  13  -1
M  END
>  <meeko>  (121) 
{"free_energy": -7.25, "intermolecular_energy": -9.64, "internal_energy": -1.57, "cluster_size": 263, "cluster_id": 1, "rank_in_cluster": 73}

$$$$

     RDKit          3D

 54 57  0  0  0  0  0  0  0  0999 V2000
   12.7640   42.2990    8.0090 C   0  0  0  0  0  0  0  0  0  0  0  0
   13.1290   40.8840    8.4660 C   0  0  0  0  0  0  0  0  0  0  0  0
   12.1410   40.4170    9.3700 O   0  0  0  0  0  0  0  0  0  0  0  0
   12.4350   39.4260   10.2400 C   0  0  0  0  0  0  0  0  0  0  0  0
   12.9910   38.3780    9.9100 O   0  0  0  0  0  0  0  0  0  0  0  0
   12.0270   39.7720   11.5350 N   0  0  0  0  0  0  0  0  0  0  0  0
   12.9800   39.9220   12.6390 C   0  0  0  0  0  0  0  0  0  0  0  0
   10.6080   39.9740   11.8580 C   0  0  0  0  0  0  0  0  0  0  0  0
    9.8310   38.6790   11.8560 C   0  0  0  0  0  0  0  0  0  0  0  0
    9.6600   37.7690   12.8850 C   0  0  0  0  0  0  0  0  0  0  0  0
   10.1590   37.8180   14.2940 C   0  0  0  0  0  0  0  0  0  0  0  0
   11.3150   37.4090   14.5360 O   0  0  0  0  0  0  0  0  0  0  0  0
    9.4270   38.2430   15.2150 O   0  0  0  0  0  1  0  0  0  0  0  0
    8.9090   36.6750   12.4040 N   0  0  0  0  0  0  0  0  0  0  0  0
    8.4740   35.4800   13.1310 C   0  0  0  0  0  0  0  0  0  0  0  0
    9.3390   35.1120   14.3430 C   0  0  0  0  0  0  0  0  0  0  0  0
   10.6180   34.5240   14.1710 C   0  0  0  0  0  0  0  0  0  0  0  0
   11.4140   34.1850   15.2780 C   0  0  0  0  0  0  0  0  0  0  0  0
   10.9460   34.4260   16.5800 C   0  0  0  0  0  0  0  0  0  0  0  0
    9.6790   35.0070   16.7780 C   0  0  0  0  0  0  0  0  0  0  0  0
    9.2250   35.2410   18.0920 C   0  0  0  0  0  0  0  0  0  0  0  0
    7.9630   35.8210   18.3130 C   0  0  0  0  0  0  0  0  0  0  0  0
    7.1510   36.1680   17.2180 C   0  0  0  0  0  0  0  0  0  0  0  0
    7.5990   35.9360   15.9030 C   0  0  0  0  0  0  0  0  0  0  0  0
    8.8680   35.3530   15.6630 C   0  0  0  0  0  0  0  0  0  0  0  0
    8.6000   36.8850   11.0660 C   0  0  0  0  0  0  0  0  0  0  0  0
    7.8920   36.1020   10.1310 C   0  0  0  0  0  0  0  0  0  0  0  0
    7.7150   36.5680    8.8180 C   0  0  0  0  0  0  0  0  0  0  0  0
    8.2450   37.8150    8.4440 C   0  0  0  0  0  0  0  0  0  0  0  0
    8.0750   38.2710    7.1800 F   0  0  0  0  0  0  0  0  0  0  0  0
    8.9540   38.5900    9.3820 C   0  0  0  0  0  0  0  0  0  0  0  0
    9.1540   38.1440   10.7110 C   0  0  0  0  0  0  0  0  0  0  0  0
   12.5993   42.9376    8.8894 H   0  0  0  0  0  0  0  0  0  0  0  0
   13.5849   42.7123    7.4046 H   0  0  0  0  0  0  0  0  0  0  0  0
   11.8456   42.2637    7.4046 H   0  0  0  0  0  0  0  0  0  0  0  0
   13.1747   40.2158    7.5934 H   0  0  0  0  0  0  0  0  0  0  0  0
   14.1094   40.8978    8.9646 H   0  0  0  0  0  0  0  0  0  0  0  0
   12.4469   39.8381   13.5975 H   0  0  0  0  0  0  0  0  0  0  0  0
   13.7437   39.1330   12.5739 H   0  0  0  0  0  0  0  0  0  0  0  0
   13.4644   40.9074   12.5739 H   0  0  0  0  0  0  0  0  0  0  0  0
   10.5336   40.4299   12.8563 H   0  0  0  0  0  0  0  0  0  0  0  0
   10.1762   40.6273   11.0855 H   0  0  0  0  0  0  0  0  0  0  0  0
    7.4459   35.6496   13.4836 H   0  0  0  0  0  0  0  0  0  0  0  0
    8.5587   34.6409   12.4248 H   0  0  0  0  0  0  0  0  0  0  0  0
   10.9927   34.3303   13.1551 H   0  0  0  0  0  0  0  0  0  0  0  0
   12.4040   33.7307   15.1249 H   0  0  0  0  0  0  0  0  0  0  0  0
   11.5701   34.1605   17.4461 H   0  0  0  0  0  0  0  0  0  0  0  0
    9.8603   34.9689   18.9478 H   0  0  0  0  0  0  0  0  0  0  0  0
    7.6118   36.0028   19.3394 H   0  0  0  0  0  0  0  0  0  0  0  0
    6.1636   36.6217   17.3892 H   0  0  0  0  0  0  0  0  0  0  0  0
    6.9568   36.2104   15.0531 H   0  0  0  0  0  0  0  0  0  0  0  0
    7.4788   35.1273   10.4297 H   0  0  0  0  0  0  0  0  0  0  0  0
    7.1640   35.9598    8.0855 H   0  0  0  0  0  0  0  0  0  0  0  0
    9.3619   39.5644    9.0752 H   0  0  0  0  0  0  0  0  0  0  0  0
  1  2  1  0
  2  3  1  0
  3  4  1  0
  4  5  2  0
  4  6  1  0
  6  7  1  0
  6  8  1  0
  8  9  1  0
  9 10  2  0
 10 11  1  0
 11 12  2  0
 11 13  1  0
 10 14  1  0
 14 15  1  0
 15 16  1  0
 16 17  2  0
 17 18  1  0
 18 19  2  0
 19 20  1  0
 20 21  2  0
 21 22  1  0
 22 23  2  0
 23 24  1  0
 24 25  2  0
 14 26  1  0
 26 27  2  0
 27 28  1  0
 28 29  2  0
 29 30  1  0
 29 31  1  0
 31 32  2  0
 32  9  1  0
 25 16  1  0
 32 26  1  0
 25 20  1  0
  1 33  1  0
  1 34  1  0
  1 35  1  0
  2 36  1  0
  2 37  1  0
  7 38  1  0
  7 39  1  0
  7 40  1  0
  8 41  1  0
  8 42  1  0
 15 43  1  0
 15 44  1  0
 17 45  1  0
 18 46  1  0
 19 47  1  0
 21 48  1  0
 22 49  1  0
 23 50  1  0
 24 51  1  0
 27 52  1  0
 28 53  1  0
 31 54  1  0
M  CHG  1  13  -1
M  END
>  <meeko>  (122) 
{"free_energy": -6.55, "intermolecular_energy": -8.94, "internal_energy": -1.68, "cluster_size": 253, "cluster_id": 8, "rank_in_cluster": 47}

$$$$

     RDKit          3D

 54 57  0  0  0  0  0  0  0  0999 V2000
    3.1790   36.5740   16.9500 C   0  0  0  0  0  0  0  0  0  0  0  0
    3.9910   37.7710   17.4520 C   0  0  0  0  0  0  0  0  0  0  0  0
    5.2130   37.3080   18.0030 O   0  0  0  0  0  0  0  0  0  0  0  0
    6.1140   36.6800   17.2170 C   0  0  0  0  0  0  0  0  0  0  0  0
    6.2110   36.8790   16.0050 O   0  0  0  0  0  0  0  0  0  0  0  0
    6.9000   35.8020   17.9750 N   0  0  0  0  0  0  0  0  0  0  0  0
    6.5640   35.4510   19.3590 C   0  0  0  0  0  0  0  0  0  0  0  0
    8.1250   35.2070   17.4240 C   0  0  0  0  0  0  0  0  0  0  0  0
    8.8490   36.1490   16.4910 C   0  0  0  0  0  0  0  0  0  0  0  0
    9.3640   35.8970   15.2320 C   0  0  0  0  0  0  0  0  0  0  0  0
    9.3250   34.6410   14.4190 C   0  0  0  0  0  0  0  0  0  0  0  0
    8.2200   34.2280   14.0060 O   0  0  0  0  0  0  0  0  0  0  0  0
   10.3740   34.0070   14.1760 O   0  0  0  0  0  1  0  0  0  0  0  0
   10.0130   37.0600   14.7650 N   0  0  0  0  0  0  0  0  0  0  0  0
   10.6940   37.2700   13.4840 C   0  0  0  0  0  0  0  0  0  0  0  0
    9.9360   38.1580   12.4880 C   0  0  0  0  0  0  0  0  0  0  0  0
    9.9450   39.5690   12.6220 C   0  0  0  0  0  0  0  0  0  0  0  0
    9.2520   40.3870   11.7120 C   0  0  0  0  0  0  0  0  0  0  0  0
    8.5360   39.8080   10.6520 C   0  0  0  0  0  0  0  0  0  0  0  0
    8.5110   38.4090   10.4990 C   0  0  0  0  0  0  0  0  0  0  0  0
    7.7860   37.8440    9.4290 C   0  0  0  0  0  0  0  0  0  0  0  0
    7.7470   36.4490    9.2570 C   0  0  0  0  0  0  0  0  0  0  0  0
    8.4340   35.6140   10.1560 C   0  0  0  0  0  0  0  0  0  0  0  0
    9.1590   36.1710   11.2270 C   0  0  0  0  0  0  0  0  0  0  0  0
    9.2100   37.5750   11.4150 C   0  0  0  0  0  0  0  0  0  0  0  0
    9.9130   38.0570   15.7260 C   0  0  0  0  0  0  0  0  0  0  0  0
   10.3950   39.3820   15.7590 C   0  0  0  0  0  0  0  0  0  0  0  0
   10.1370   40.1940   16.8770 C   0  0  0  0  0  0  0  0  0  0  0  0
    9.3970   39.6790   17.9550 C   0  0  0  0  0  0  0  0  0  0  0  0
    9.1420   40.4580   19.0340 F   0  0  0  0  0  0  0  0  0  0  0  0
    8.9220   38.3540   17.9160 C   0  0  0  0  0  0  0  0  0  0  0  0
    9.1710   37.5100   16.8070 C   0  0  0  0  0  0  0  0  0  0  0  0
    2.7936   36.0059   17.8095 H   0  0  0  0  0  0  0  0  0  0  0  0
    2.3367   36.9322   16.3399 H   0  0  0  0  0  0  0  0  0  0  0  0
    3.8232   35.9238   16.3399 H   0  0  0  0  0  0  0  0  0  0  0  0
    4.2001   38.4514   16.6133 H   0  0  0  0  0  0  0  0  0  0  0  0
    3.4187   38.3086   18.2223 H   0  0  0  0  0  0  0  0  0  0  0  0
    7.1567   36.0701   20.0485 H   0  0  0  0  0  0  0  0  0  0  0  0
    5.4929   35.6309   19.5332 H   0  0  0  0  0  0  0  0  0  0  0  0
    6.7905   34.3888   19.5332 H   0  0  0  0  0  0  0  0  0  0  0  0
    8.7967   34.9463   18.2552 H   0  0  0  0  0  0  0  0  0  0  0  0
    7.8368   34.3162   16.8466 H   0  0  0  0  0  0  0  0  0  0  0  0
   11.6680   37.7389   13.6875 H   0  0  0  0  0  0  0  0  0  0  0  0
   10.7779   36.2795   13.0129 H   0  0  0  0  0  0  0  0  0  0  0  0
   10.5024   40.0311   13.4502 H   0  0  0  0  0  0  0  0  0  0  0  0
    9.2708   41.4804   11.8306 H   0  0  0  0  0  0  0  0  0  0  0  0
    7.9941   40.4483    9.9405 H   0  0  0  0  0  0  0  0  0  0  0  0
    7.2488   38.4976    8.7260 H   0  0  0  0  0  0  0  0  0  0  0  0
    7.1806   36.0120    8.4214 H   0  0  0  0  0  0  0  0  0  0  0  0
    8.4050   34.5225   10.0222 H   0  0  0  0  0  0  0  0  0  0  0  0
    9.6918   35.5091   11.9256 H   0  0  0  0  0  0  0  0  0  0  0  0
   10.9720   39.7794   14.9110 H   0  0  0  0  0  0  0  0  0  0  0  0
   10.5125   41.2275   16.9080 H   0  0  0  0  0  0  0  0  0  0  0  0
    8.3438   37.9655   18.7673 H   0  0  0  0  0  0  0  0  0  0  0  0
  1  2  1  0
  2  3  1  0
  3  4  1  0
  4  5  2  0
  4  6  1  0
  6  7  1  0
  6  8  1  0
  8  9  1  0
  9 10  2  0
 10 11  1  0
 11 12  2  0
 11 13  1  0
 10 14  1  0
 14 15  1  0
 15 16  1  0
 16 17  2  0
 17 18  1  0
 18 19  2  0
 19 20  1  0
 20 21  2  0
 21 22  1  0
 22 23  2  0
 23 24  1  0
 24 25  2  0
 14 26  1  0
 26 27  2  0
 27 28  1  0
 28 29  2  0
 29 30  1  0
 29 31  1  0
 31 32  2  0
 32  9  1  0
 25 16  1  0
 32 26  1  0
 25 20  1  0
  1 33  1  0
  1 34  1  0
  1 35  1  0
  2 36  1  0
  2 37  1  0
  7 38  1  0
  7 39  1  0
  7 40  1  0
  8 41  1  0
  8 42  1  0
 15 43  1  0
 15 44  1  0
 17 45  1  0
 18 46  1  0
 19 47  1  0
 21 48  1  0
 22 49  1  0
 23 50  1  0
 24 51  1  0
 27 52  1  0
 28 53  1  0
 31 54  1  0
M  CHG  1  13  -1
M  END
>  <meeko>  (123) 
{"free_energy": -7.05, "intermolecular_energy": -9.44, "internal_energy": -1.93, "cluster_size": 163, "cluster_id": 4, "rank_in_cluster": 26}

$$$$

     RDKit          3D

 54 57  0  0  0  0  0  0  0  0999 V2000
   15.0550   38.8500   13.8140 C   0  0  0  0  0  0  0  0  0  0  0  0
   14.0960   39.9760   14.2080 C   0  0  0  0  0  0  0  0  0  0  0  0
   12.9850   39.9740   13.3260 O   0  0  0  0  0  0  0  0  0  0  0  0
   13.1250   40.4240   12.0610 C   0  0  0  0  0  0  0  0  0  0  0  0
   14.2180   40.6060   11.5230 O   0  0  0  0  0  0  0  0  0  0  0  0
   11.8710   40.6350   11.4730 N   0  0  0  0  0  0  0  0  0  0  0  0
   11.6920   40.7040   10.0190 C   0  0  0  0  0  0  0  0  0  0  0  0
   10.6680   40.8280   12.2940 C   0  0  0  0  0  0  0  0  0  0  0  0
   10.0650   39.5180   12.7430 C   0  0  0  0  0  0  0  0  0  0  0  0
    9.8360   39.0660   14.0300 C   0  0  0  0  0  0  0  0  0  0  0  0
   10.0830   39.7470   15.3390 C   0  0  0  0  0  0  0  0  0  0  0  0
   11.0650   40.5140   15.4410 O   0  0  0  0  0  0  0  0  0  0  0  0
    9.3330   39.5380   16.3180 O   0  0  0  0  0  1  0  0  0  0  0  0
    9.3150   37.7560   13.9660 N   0  0  0  0  0  0  0  0  0  0  0  0
    8.9120   36.8800   15.0700 C   0  0  0  0  0  0  0  0  0  0  0  0
    9.8230   35.6650   15.2950 C   0  0  0  0  0  0  0  0  0  0  0  0
    9.4010   34.3640   14.9260 C   0  0  0  0  0  0  0  0  0  0  0  0
   10.2320   33.2480   15.1290 C   0  0  0  0  0  0  0  0  0  0  0  0
   11.5000   33.4140   15.7080 C   0  0  0  0  0  0  0  0  0  0  0  0
   11.9410   34.6960   16.0850 C   0  0  0  0  0  0  0  0  0  0  0  0
   13.2180   34.8440   16.6660 C   0  0  0  0  0  0  0  0  0  0  0  0
   13.6790   36.1160   17.0500 C   0  0  0  0  0  0  0  0  0  0  0  0
   12.8640   37.2440   16.8530 C   0  0  0  0  0  0  0  0  0  0  0  0
   11.5880   37.1040   16.2750 C   0  0  0  0  0  0  0  0  0  0  0  0
   11.1070   35.8300   15.8820 C   0  0  0  0  0  0  0  0  0  0  0  0
    9.2100   37.3700   12.6350 C   0  0  0  0  0  0  0  0  0  0  0  0
    8.7690   36.1720   12.0360 C   0  0  0  0  0  0  0  0  0  0  0  0
    8.7590   36.0510   10.6370 C   0  0  0  0  0  0  0  0  0  0  0  0
    9.1890   37.1270    9.8410 C   0  0  0  0  0  0  0  0  0  0  0  0
    9.1780   37.0180    8.4920 F   0  0  0  0  0  0  0  0  0  0  0  0
    9.6320   38.3190   10.4470 C   0  0  0  0  0  0  0  0  0  0  0  0
    9.6590   38.4680   11.8550 C   0  0  0  0  0  0  0  0  0  0  0  0
   15.4578   38.3770   14.7218 H   0  0  0  0  0  0  0  0  0  0  0  0
   14.5144   38.0995   13.2185 H   0  0  0  0  0  0  0  0  0  0  0  0
   15.8819   39.2642   13.2185 H   0  0  0  0  0  0  0  0  0  0  0  0
   13.7471   39.8179   15.2392 H   0  0  0  0  0  0  0  0  0  0  0  0
   14.6162   40.9431   14.1441 H   0  0  0  0  0  0  0  0  0  0  0  0
   10.6879   41.0911    9.7911 H   0  0  0  0  0  0  0  0  0  0  0  0
   12.4500   41.3744    9.5877 H   0  0  0  0  0  0  0  0  0  0  0  0
   11.8039   39.6983    9.5877 H   0  0  0  0  0  0  0  0  0  0  0  0
   10.9372   41.4169   13.1832 H   0  0  0  0  0  0  0  0  0  0  0  0
    9.9203   41.3495   11.6785 H   0  0  0  0  0  0  0  0  0  0  0  0
    8.9032   37.4766   15.9941 H   0  0  0  0  0  0  0  0  0  0  0  0
    7.9233   36.4795   14.8016 H   0  0  0  0  0  0  0  0  0  0  0  0
    8.4080   34.2247   14.4737 H   0  0  0  0  0  0  0  0  0  0  0  0
    9.8887   32.2454   14.8342 H   0  0  0  0  0  0  0  0  0  0  0  0
   12.1497   32.5408   15.8672 H   0  0  0  0  0  0  0  0  0  0  0  0
   13.8557   33.9609   16.8193 H   0  0  0  0  0  0  0  0  0  0  0  0
   14.6750   36.2278   17.5034 H   0  0  0  0  0  0  0  0  0  0  0  0
   13.2244   38.2395   17.1514 H   0  0  0  0  0  0  0  0  0  0  0  0
   10.9574   37.9930   16.1268 H   0  0  0  0  0  0  0  0  0  0  0  0
    8.4333   35.3334   12.6638 H   0  0  0  0  0  0  0  0  0  0  0  0
    8.4161   35.1180   10.1659 H   0  0  0  0  0  0  0  0  0  0  0  0
    9.9646   39.1533    9.8119 H   0  0  0  0  0  0  0  0  0  0  0  0
  1  2  1  0
  2  3  1  0
  3  4  1  0
  4  5  2  0
  4  6  1  0
  6  7  1  0
  6  8  1  0
  8  9  1  0
  9 10  2  0
 10 11  1  0
 11 12  2  0
 11 13  1  0
 10 14  1  0
 14 15  1  0
 15 16  1  0
 16 17  2  0
 17 18  1  0
 18 19  2  0
 19 20  1  0
 20 21  2  0
 21 22  1  0
 22 23  2  0
 23 24  1  0
 24 25  2  0
 14 26  1  0
 26 27  2  0
 27 28  1  0
 28 29  2  0
 29 30  1  0
 29 31  1  0
 31 32  2  0
 32  9  1  0
 25 16  1  0
 32 26  1  0
 25 20  1  0
  1 33  1  0
  1 34  1  0
  1 35  1  0
  2 36  1  0
  2 37  1  0
  7 38  1  0
  7 39  1  0
  7 40  1  0
  8 41  1  0
  8 42  1  0
 15 43  1  0
 15 44  1  0
 17 45  1  0
 18 46  1  0
 19 47  1  0
 21 48  1  0
 22 49  1  0
 23 50  1  0
 24 51  1  0
 27 52  1  0
 28 53  1  0
 31 54  1  0
M  CHG  1  13  -1
M  END
>  <meeko>  (124) 
{"free_energy": -5.13, "intermolecular_energy": -7.52, "internal_energy": -2.26, "cluster_size": 130, "cluster_id": 32, "rank_in_cluster": 93}

$$$$

     RDKit          3D

 54 57  0  0  0  0  0  0  0  0999 V2000
   12.3000   42.7040    4.8140 C   0  0  0  0  0  0  0  0  0  0  0  0
   13.5330   42.1240    5.5100 C   0  0  0  0  0  0  0  0  0  0  0  0
   13.8690   42.9390    6.6220 O   0  0  0  0  0  0  0  0  0  0  0  0
   13.1760   42.8280    7.7750 C   0  0  0  0  0  0  0  0  0  0  0  0
   11.9450   42.7850    7.8250 O   0  0  0  0  0  0  0  0  0  0  0  0
   14.0490   42.7650    8.8690 N   0  0  0  0  0  0  0  0  0  0  0  0
   15.4980   42.6080    8.7030 C   0  0  0  0  0  0  0  0  0  0  0  0
   13.5470   42.8240   10.2490 C   0  0  0  0  0  0  0  0  0  0  0  0
   12.5300   41.7450   10.5340 C   0  0  0  0  0  0  0  0  0  0  0  0
   12.4430   40.4710    9.9990 C   0  0  0  0  0  0  0  0  0  0  0  0
   13.3420   39.7860    9.0180 C   0  0  0  0  0  0  0  0  0  0  0  0
   12.8320   39.2520    8.0090 O   0  0  0  0  0  0  0  0  0  0  0  0
   14.5750   39.7320    9.2150 O   0  0  0  0  0  1  0  0  0  0  0  0
   11.2910   39.8400   10.5130 N   0  0  0  0  0  0  0  0  0  0  0  0
   10.7960   38.4870   10.2410 C   0  0  0  0  0  0  0  0  0  0  0  0
    9.5030   38.4270    9.4170 C   0  0  0  0  0  0  0  0  0  0  0  0
    8.9390   39.6050    8.8650 C   0  0  0  0  0  0  0  0  0  0  0  0
    7.7550   39.5540    8.1090 C   0  0  0  0  0  0  0  0  0  0  0  0
    7.1110   38.3250    7.8930 C   0  0  0  0  0  0  0  0  0  0  0  0
    7.6500   37.1420    8.4330 C   0  0  0  0  0  0  0  0  0  0  0  0
    6.9900   35.9170    8.2070 C   0  0  0  0  0  0  0  0  0  0  0  0
    7.5100   34.7230    8.7370 C   0  0  0  0  0  0  0  0  0  0  0  0
    8.6940   34.7520    9.4950 C   0  0  0  0  0  0  0  0  0  0  0  0
    9.3580   35.9720    9.7250 C   0  0  0  0  0  0  0  0  0  0  0  0
    8.8480   37.1850    9.1980 C   0  0  0  0  0  0  0  0  0  0  0  0
   10.6390   40.7100   11.3780 C   0  0  0  0  0  0  0  0  0  0  0  0
    9.4540   40.5750   12.1290 C   0  0  0  0  0  0  0  0  0  0  0  0
    9.0180   41.6320   12.9460 C   0  0  0  0  0  0  0  0  0  0  0  0
    9.7700   42.8180   13.0110 C   0  0  0  0  0  0  0  0  0  0  0  0
    9.3570   43.8390   13.7990 F   0  0  0  0  0  0  0  0  0  0  0  0
   10.9510   42.9460   12.2540 C   0  0  0  0  0  0  0  0  0  0  0  0
   11.4110   41.9020   11.4170 C   0  0  0  0  0  0  0  0  0  0  0  0
   11.5776   43.0438    5.5708 H   0  0  0  0  0  0  0  0  0  0  0  0
   12.6003   43.5553    4.1854 H   0  0  0  0  0  0  0  0  0  0  0  0
   11.8357   41.9299    4.1854 H   0  0  0  0  0  0  0  0  0  0  0  0
   13.3140   41.1028    5.8554 H   0  0  0  0  0  0  0  0  0  0  0  0
   14.3764   42.0965    4.8043 H   0  0  0  0  0  0  0  0  0  0  0  0
   15.9769   42.5561    9.6919 H   0  0  0  0  0  0  0  0  0  0  0  0
   15.7051   41.6822    8.1463 H   0  0  0  0  0  0  0  0  0  0  0  0
   15.8986   43.4680    8.1463 H   0  0  0  0  0  0  0  0  0  0  0  0
   14.3946   42.7028   10.9395 H   0  0  0  0  0  0  0  0  0  0  0  0
   13.0534   43.7973   10.3868 H   0  0  0  0  0  0  0  0  0  0  0  0
   11.5772   37.9411    9.6917 H   0  0  0  0  0  0  0  0  0  0  0  0
   10.5603   38.0417   11.2188 H   0  0  0  0  0  0  0  0  0  0  0  0
    9.4351   40.5727    9.0307 H   0  0  0  0  0  0  0  0  0  0  0  0
    7.3326   40.4775    7.6863 H   0  0  0  0  0  0  0  0  0  0  0  0
    6.1845   38.2866    7.3013 H   0  0  0  0  0  0  0  0  0  0  0  0
    6.0642   35.8952    7.6134 H   0  0  0  0  0  0  0  0  0  0  0  0
    6.9921   33.7690    8.5592 H   0  0  0  0  0  0  0  0  0  0  0  0
    9.1027   33.8186    9.9095 H   0  0  0  0  0  0  0  0  0  0  0  0
   10.2829   35.9840   10.3203 H   0  0  0  0  0  0  0  0  0  0  0  0
    8.8712   39.6436   12.0757 H   0  0  0  0  0  0  0  0  0  0  0  0
    8.0925   41.5318   13.5320 H   0  0  0  0  0  0  0  0  0  0  0  0
   11.5294   43.8797   12.3150 H   0  0  0  0  0  0  0  0  0  0  0  0
  1  2  1  0
  2  3  1  0
  3  4  1  0
  4  5  2  0
  4  6  1  0
  6  7  1  0
  6  8  1  0
  8  9  1  0
  9 10  2  0
 10 11  1  0
 11 12  2  0
 11 13  1  0
 10 14  1  0
 14 15  1  0
 15 16  1  0
 16 17  2  0
 17 18  1  0
 18 19  2  0
 19 20  1  0
 20 21  2  0
 21 22  1  0
 22 23  2  0
 23 24  1  0
 24 25  2  0
 14 26  1  0
 26 27  2  0
 27 28  1  0
 28 29  2  0
 29 30  1  0
 29 31  1  0
 31 32  2  0
 32  9  1  0
 25 16  1  0
 32 26  1  0
 25 20  1  0
  1 33  1  0
  1 34  1  0
  1 35  1  0
  2 36  1  0
  2 37  1  0
  7 38  1  0
  7 39  1  0
  7 40  1  0
  8 41  1  0
  8 42  1  0
 15 43  1  0
 15 44  1  0
 17 45  1  0
 18 46  1  0
 19 47  1  0
 21 48  1  0
 22 49  1  0
 23 50  1  0
 24 51  1  0
 27 52  1  0
 28 53  1  0
 31 54  1  0
M  CHG  1  13  -1
M  END
>  <meeko>  (125) 
{"free_energy": -5.88, "intermolecular_energy": -8.27, "internal_energy": -1.9, "cluster_size": 74, "cluster_id": 18, "rank_in_cluster": 23}

$$$$

     RDKit          3D

 54 57  0  0  0  0  0  0  0  0999 V2000
    6.5350   38.6320    5.2840 C   0  0  0  0  0  0  0  0  0  0  0  0
    6.6380   39.4780    6.5550 C   0  0  0  0  0  0  0  0  0  0  0  0
    7.6420   38.9350    7.3970 O   0  0  0  0  0  0  0  0  0  0  0  0
    7.3980   37.8090    8.1000 C   0  0  0  0  0  0  0  0  0  0  0  0
    6.6510   36.9120    7.7060 O   0  0  0  0  0  0  0  0  0  0  0  0
    8.1110   37.8180    9.3060 N   0  0  0  0  0  0  0  0  0  0  0  0
    8.7300   36.6070    9.8560 C   0  0  0  0  0  0  0  0  0  0  0  0
    8.2510   39.0470   10.0990 C   0  0  0  0  0  0  0  0  0  0  0  0
    9.6580   39.2390   10.6140 C   0  0  0  0  0  0  0  0  0  0  0  0
   10.3100   38.5610   11.6290 C   0  0  0  0  0  0  0  0  0  0  0  0
    9.8300   37.4280   12.4810 C   0  0  0  0  0  0  0  0  0  0  0  0
   10.3330   36.2970   12.3150 O   0  0  0  0  0  0  0  0  0  0  0  0
    8.9290   37.6080   13.3300 O   0  0  0  0  0  1  0  0  0  0  0  0
   11.5910   39.1260   11.8030 N   0  0  0  0  0  0  0  0  0  0  0  0
   12.6390   38.7330   12.7500 C   0  0  0  0  0  0  0  0  0  0  0  0
   13.9950   38.4040   12.1120 C   0  0  0  0  0  0  0  0  0  0  0  0
   14.0680   37.7790   10.8420 C   0  0  0  0  0  0  0  0  0  0  0  0
   15.3080   37.4760   10.2540 C   0  0  0  0  0  0  0  0  0  0  0  0
   16.4990   37.7920   10.9260 C   0  0  0  0  0  0  0  0  0  0  0  0
   16.4540   38.4120   12.1890 C   0  0  0  0  0  0  0  0  0  0  0  0
   17.6610   38.7220   12.8490 C   0  0  0  0  0  0  0  0  0  0  0  0
   17.6390   39.3410   14.1120 C   0  0  0  0  0  0  0  0  0  0  0  0
   16.4080   39.6520   14.7170 C   0  0  0  0  0  0  0  0  0  0  0  0
   15.2000   39.3450   14.0630 C   0  0  0  0  0  0  0  0  0  0  0  0
   15.2030   38.7220   12.7900 C   0  0  0  0  0  0  0  0  0  0  0  0
   11.7600   40.1660   10.8980 C   0  0  0  0  0  0  0  0  0  0  0  0
   12.8350   41.0490   10.6710 C   0  0  0  0  0  0  0  0  0  0  0  0
   12.7410   42.0240    9.6640 C   0  0  0  0  0  0  0  0  0  0  0  0
   11.5730   42.1110    8.8860 C   0  0  0  0  0  0  0  0  0  0  0  0
   11.4780   43.0460    7.9110 F   0  0  0  0  0  0  0  0  0  0  0  0
   10.5020   41.2280    9.1210 C   0  0  0  0  0  0  0  0  0  0  0  0
   10.5650   40.2400   10.1330 C   0  0  0  0  0  0  0  0  0  0  0  0
    6.4062   37.5742    5.5570 H   0  0  0  0  0  0  0  0  0  0  0  0
    5.6708   38.9654    4.6907 H   0  0  0  0  0  0  0  0  0  0  0  0
    7.4539   38.7483    4.6907 H   0  0  0  0  0  0  0  0  0  0  0  0
    6.9014   40.5121    6.2882 H   0  0  0  0  0  0  0  0  0  0  0  0
    5.6721   39.4731    7.0813 H   0  0  0  0  0  0  0  0  0  0  0  0
    8.7077   36.6505   10.9549 H   0  0  0  0  0  0  0  0  0  0  0  0
    8.1735   35.7224    9.5127 H   0  0  0  0  0  0  0  0  0  0  0  0
    9.7729   36.5400    9.5127 H   0  0  0  0  0  0  0  0  0  0  0  0
    7.9847   39.9076    9.4678 H   0  0  0  0  0  0  0  0  0  0  0  0
    7.5823   38.9648   10.9686 H   0  0  0  0  0  0  0  0  0  0  0  0
   12.7868   39.5608   13.4592 H   0  0  0  0  0  0  0  0  0  0  0  0
   12.2903   37.8064   13.2294 H   0  0  0  0  0  0  0  0  0  0  0  0
   13.1397   37.5272   10.3083 H   0  0  0  0  0  0  0  0  0  0  0  0
   15.3451   36.9913    9.2673 H   0  0  0  0  0  0  0  0  0  0  0  0
   17.4692   37.5548   10.4650 H   0  0  0  0  0  0  0  0  0  0  0  0
   18.6232   38.4789   12.3745 H   0  0  0  0  0  0  0  0  0  0  0  0
   18.5819   39.5811   14.6250 H   0  0  0  0  0  0  0  0  0  0  0  0
   16.3892   40.1366   15.7043 H   0  0  0  0  0  0  0  0  0  0  0  0
   14.2427   39.5914   14.5455 H   0  0  0  0  0  0  0  0  0  0  0  0
   13.7468   40.9747   11.2819 H   0  0  0  0  0  0  0  0  0  0  0  0
   13.5771   42.7160    9.4850 H   0  0  0  0  0  0  0  0  0  0  0  0
    9.5949   41.3076    8.5038 H   0  0  0  0  0  0  0  0  0  0  0  0
  1  2  1  0
  2  3  1  0
  3  4  1  0
  4  5  2  0
  4  6  1  0
  6  7  1  0
  6  8  1  0
  8  9  1  0
  9 10  2  0
 10 11  1  0
 11 12  2  0
 11 13  1  0
 10 14  1  0
 14 15  1  0
 15 16  1  0
 16 17  2  0
 17 18  1  0
 18 19  2  0
 19 20  1  0
 20 21  2  0
 21 22  1  0
 22 23  2  0
 23 24  1  0
 24 25  2  0
 14 26  1  0
 26 27  2  0
 27 28  1  0
 28 29  2  0
 29 30  1  0
 29 31  1  0
 31 32  2  0
 32  9  1  0
 25 16  1  0
 32 26  1  0
 25 20  1  0
  1 33  1  0
  1 34  1  0
  1 35  1  0
  2 36  1  0
  2 37  1  0
  7 38  1  0
  7 39  1  0
  7 40  1  0
  8 41  1  0
  8 42  1  0
 15 43  1  0
 15 44  1  0
 17 45  1  0
 18 46  1  0
 19 47  1  0
 21 48  1  0
 22 49  1  0
 23 50  1  0
 24 51  1  0
 27 52  1  0
 28 53  1  0
 31 54  1  0
M  CHG  1  13  -1
M  END
>  <meeko>  (126) 
{"free_energy": -5.36, "intermolecular_energy": -7.74, "internal_energy": -1.48, "cluster_size": 6, "cluster_id": 139, "rank_in_cluster": 1}

$$$$

     RDKit          3D

 54 57  0  0  0  0  0  0  0  0999 V2000
   14.3460   40.2890   16.0440 C   0  0  0  0  0  0  0  0  0  0  0  0
   13.4530   39.2820   15.3150 C   0  0  0  0  0  0  0  0  0  0  0  0
   14.1840   38.6940   14.2510 O   0  0  0  0  0  0  0  0  0  0  0  0
   13.6670   38.6740   13.0050 C   0  0  0  0  0  0  0  0  0  0  0  0
   12.5060   38.3420   12.7580 O   0  0  0  0  0  0  0  0  0  0  0  0
   14.6250   39.0840   12.0680 N   0  0  0  0  0  0  0  0  0  0  0  0
   15.9880   38.5410   12.0580 C   0  0  0  0  0  0  0  0  0  0  0  0
   14.3160   40.1070   11.0610 C   0  0  0  0  0  0  0  0  0  0  0  0
   12.8610   40.5120   11.0830 C   0  0  0  0  0  0  0  0  0  0  0  0
   11.8430   40.1330   10.2260 C   0  0  0  0  0  0  0  0  0  0  0  0
   11.8760   39.1940    9.0620 C   0  0  0  0  0  0  0  0  0  0  0  0
   11.1640   38.1680    9.0970 O   0  0  0  0  0  0  0  0  0  0  0  0
   12.6170   39.4230    8.0800 O   0  0  0  0  0  1  0  0  0  0  0  0
   10.6620   40.8120   10.5950 N   0  0  0  0  0  0  0  0  0  0  0  0
    9.3320   40.7230    9.9870 C   0  0  0  0  0  0  0  0  0  0  0  0
    8.8090   39.2940    9.7870 C   0  0  0  0  0  0  0  0  0  0  0  0
    8.2090   38.9050    8.5640 C   0  0  0  0  0  0  0  0  0  0  0  0
    7.7290   37.5970    8.3760 C   0  0  0  0  0  0  0  0  0  0  0  0
    7.8380   36.6540    9.4110 C   0  0  0  0  0  0  0  0  0  0  0  0
    8.4280   37.0170   10.6360 C   0  0  0  0  0  0  0  0  0  0  0  0
    8.5290   36.0570   11.6640 C   0  0  0  0  0  0  0  0  0  0  0  0
    9.1150   36.3970   12.8970 C   0  0  0  0  0  0  0  0  0  0  0  0
    9.6030   37.7000   13.1030 C   0  0  0  0  0  0  0  0  0  0  0  0
    9.5040   38.6630   12.0810 C   0  0  0  0  0  0  0  0  0  0  0  0
    8.9170   38.3370   10.8330 C   0  0  0  0  0  0  0  0  0  0  0  0
   10.9260   41.6270   11.6890 C   0  0  0  0  0  0  0  0  0  0  0  0
   10.1060   42.5100   12.4220 C   0  0  0  0  0  0  0  0  0  0  0  0
   10.6390   43.2190   13.5120 C   0  0  0  0  0  0  0  0  0  0  0  0
   11.9880   43.0420   13.8650 C   0  0  0  0  0  0  0  0  0  0  0  0
   12.5060   43.7190   14.9170 F   0  0  0  0  0  0  0  0  0  0  0  0
   12.8010   42.1610   13.1260 C   0  0  0  0  0  0  0  0  0  0  0  0
   12.2940   41.4380   12.0190 C   0  0  0  0  0  0  0  0  0  0  0  0
   14.2322   40.1607   17.1305 H   0  0  0  0  0  0  0  0  0  0  0  0
   15.3958   40.1191   15.7627 H   0  0  0  0  0  0  0  0  0  0  0  0
   14.0518   41.3109   15.7627 H   0  0  0  0  0  0  0  0  0  0  0  0
   13.1321   38.4989   16.0177 H   0  0  0  0  0  0  0  0  0  0  0  0
   12.5671   39.7964   14.9144 H   0  0  0  0  0  0  0  0  0  0  0  0
   16.3352   38.4027   13.0926 H   0  0  0  0  0  0  0  0  0  0  0  0
   15.9929   37.5722   11.5370 H   0  0  0  0  0  0  0  0  0  0  0  0
   16.6577   39.2410   11.5370 H   0  0  0  0  0  0  0  0  0  0  0  0
   14.9336   40.9956   11.2584 H   0  0  0  0  0  0  0  0  0  0  0  0
   14.5315   39.6800   10.0704 H   0  0  0  0  0  0  0  0  0  0  0  0
    8.6231   41.2591   10.6351 H   0  0  0  0  0  0  0  0  0  0  0  0
    9.4210   41.1631    8.9828 H   0  0  0  0  0  0  0  0  0  0  0  0
    8.1173   39.6378    7.7488 H   0  0  0  0  0  0  0  0  0  0  0  0
    7.2682   37.3123    7.4186 H   0  0  0  0  0  0  0  0  0  0  0  0
    7.4619   35.6308    9.2640 H   0  0  0  0  0  0  0  0  0  0  0  0
    8.1480   35.0380   11.5011 H   0  0  0  0  0  0  0  0  0  0  0  0
    9.1913   35.6463   13.6974 H   0  0  0  0  0  0  0  0  0  0  0  0
   10.0634   37.9673   14.0656 H   0  0  0  0  0  0  0  0  0  0  0  0
    9.8865   39.6799   12.2530 H   0  0  0  0  0  0  0  0  0  0  0  0
    9.0509   42.6435   12.1409 H   0  0  0  0  0  0  0  0  0  0  0  0
   10.0035   43.9092   14.0862 H   0  0  0  0  0  0  0  0  0  0  0  0
   13.8543   42.0315   13.4154 H   0  0  0  0  0  0  0  0  0  0  0  0
  1  2  1  0
  2  3  1  0
  3  4  1  0
  4  5  2  0
  4  6  1  0
  6  7  1  0
  6  8  1  0
  8  9  1  0
  9 10  2  0
 10 11  1  0
 11 12  2  0
 11 13  1  0
 10 14  1  0
 14 15  1  0
 15 16  1  0
 16 17  2  0
 17 18  1  0
 18 19  2  0
 19 20  1  0
 20 21  2  0
 21 22  1  0
 22 23  2  0
 23 24  1  0
 24 25  2  0
 14 26  1  0
 26 27  2  0
 27 28  1  0
 28 29  2  0
 29 30  1  0
 29 31  1  0
 31 32  2  0
 32  9  1  0
 25 16  1  0
 32 26  1  0
 25 20  1  0
  1 33  1  0
  1 34  1  0
  1 35  1  0
  2 36  1  0
  2 37  1  0
  7 38  1  0
  7 39  1  0
  7 40  1  0
  8 41  1  0
  8 42  1  0
 15 43  1  0
 15 44  1  0
 17 45  1  0
 18 46  1  0
 19 47  1  0
 21 48  1  0
 22 49  1  0
 23 50  1  0
 24 51  1  0
 27 52  1  0
 28 53  1  0
 31 54  1  0
M  CHG  1  13  -1
M  END
>  <meeko>  (127) 
{"free_energy": -5.39, "intermolecular_energy": -7.78, "internal_energy": -2.35, "cluster_size": 417, "cluster_id": 2, "rank_in_cluster": 347}

$$$$

     RDKit          3D

 54 57  0  0  0  0  0  0  0  0999 V2000
    8.5300   39.7240    9.0850 C   0  0  0  0  0  0  0  0  0  0  0  0
    8.8510   40.0400   10.5480 C   0  0  0  0  0  0  0  0  0  0  0  0
   10.2580   40.0620   10.7230 O   0  0  0  0  0  0  0  0  0  0  0  0
   10.7860   40.4080   11.9170 C   0  0  0  0  0  0  0  0  0  0  0  0
   10.1070   40.7760   12.8770 O   0  0  0  0  0  0  0  0  0  0  0  0
   12.1810   40.2790   11.8930 N   0  0  0  0  0  0  0  0  0  0  0  0
   13.0560   41.3580   11.4200 C   0  0  0  0  0  0  0  0  0  0  0  0
   12.8390   39.0360   12.3180 C   0  0  0  0  0  0  0  0  0  0  0  0
   12.0100   38.2620   13.3160 C   0  0  0  0  0  0  0  0  0  0  0  0
   12.2300   38.0810   14.6700 C   0  0  0  0  0  0  0  0  0  0  0  0
   13.3210   38.6200   15.5390 C   0  0  0  0  0  0  0  0  0  0  0  0
   13.0560   39.5570   16.3230 O   0  0  0  0  0  0  0  0  0  0  0  0
   14.4800   38.1560   15.4690 O   0  0  0  0  0  1  0  0  0  0  0  0
   11.2270   37.2300   15.1830 N   0  0  0  0  0  0  0  0  0  0  0  0
   11.0450   36.7660   16.5610 C   0  0  0  0  0  0  0  0  0  0  0  0
    9.7830   37.2920   17.2570 C   0  0  0  0  0  0  0  0  0  0  0  0
    9.7400   38.6060   17.7860 C   0  0  0  0  0  0  0  0  0  0  0  0
    8.5860   39.0930   18.4240 C   0  0  0  0  0  0  0  0  0  0  0  0
    7.4530   38.2720   18.5470 C   0  0  0  0  0  0  0  0  0  0  0  0
    7.4720   36.9620   18.0320 C   0  0  0  0  0  0  0  0  0  0  0  0
    6.3250   36.1520   18.1650 C   0  0  0  0  0  0  0  0  0  0  0  0
    6.3210   34.8410   17.6580 C   0  0  0  0  0  0  0  0  0  0  0  0
    7.4650   34.3360   17.0150 C   0  0  0  0  0  0  0  0  0  0  0  0
    8.6140   35.1400   16.8790 C   0  0  0  0  0  0  0  0  0  0  0  0
    8.6350   36.4630   17.3840 C   0  0  0  0  0  0  0  0  0  0  0  0
   10.3660   36.8670   14.1560 C   0  0  0  0  0  0  0  0  0  0  0  0
    9.2270   36.0350   14.1350 C   0  0  0  0  0  0  0  0  0  0  0  0
    8.5210   35.8440   12.9350 C   0  0  0  0  0  0  0  0  0  0  0  0
    8.9550   36.4860   11.7620 C   0  0  0  0  0  0  0  0  0  0  0  0
    8.2760   36.3090   10.6030 F   0  0  0  0  0  0  0  0  0  0  0  0
   10.0950   37.3120   11.7900 C   0  0  0  0  0  0  0  0  0  0  0  0
   10.8300   37.5190   12.9820 C   0  0  0  0  0  0  0  0  0  0  0  0
    7.7468   38.9530    9.0397 H   0  0  0  0  0  0  0  0  0  0  0  0
    8.1762   40.6360    8.5820 H   0  0  0  0  0  0  0  0  0  0  0  0
    9.4364   39.3559    8.5820 H   0  0  0  0  0  0  0  0  0  0  0  0
    8.4321   41.0221   10.8126 H   0  0  0  0  0  0  0  0  0  0  0  0
    8.4101   39.2695   11.1976 H   0  0  0  0  0  0  0  0  0  0  0  0
   13.4852   41.8872   12.2836 H   0  0  0  0  0  0  0  0  0  0  0  0
   13.8670   40.9321   10.8109 H   0  0  0  0  0  0  0  0  0  0  0  0
   12.4718   42.0635   10.8109 H   0  0  0  0  0  0  0  0  0  0  0  0
   13.0083   38.4047   11.4332 H   0  0  0  0  0  0  0  0  0  0  0  0
   13.7874   39.3063   12.8053 H   0  0  0  0  0  0  0  0  0  0  0  0
   10.9956   35.6672   16.5481 H   0  0  0  0  0  0  0  0  0  0  0  0
   11.8992   37.1561   17.1338 H   0  0  0  0  0  0  0  0  0  0  0  0
   10.6235   39.2550   17.6959 H   0  0  0  0  0  0  0  0  0  0  0  0
    8.5703   40.1165   18.8267 H   0  0  0  0  0  0  0  0  0  0  0  0
    6.5499   38.6531   19.0463 H   0  0  0  0  0  0  0  0  0  0  0  0
    5.4301   36.5478   18.6675 H   0  0  0  0  0  0  0  0  0  0  0  0
    5.4251   34.2116   17.7640 H   0  0  0  0  0  0  0  0  0  0  0  0
    7.4629   33.3105   16.6171 H   0  0  0  0  0  0  0  0  0  0  0  0
    9.5044   34.7358   16.3752 H   0  0  0  0  0  0  0  0  0  0  0  0
    8.8920   35.5365   15.0565 H   0  0  0  0  0  0  0  0  0  0  0  0
    7.6330   35.1952   12.9136 H   0  0  0  0  0  0  0  0  0  0  0  0
   10.4220   37.8079   10.8642 H   0  0  0  0  0  0  0  0  0  0  0  0
  1  2  1  0
  2  3  1  0
  3  4  1  0
  4  5  2  0
  4  6  1  0
  6  7  1  0
  6  8  1  0
  8  9  1  0
  9 10  2  0
 10 11  1  0
 11 12  2  0
 11 13  1  0
 10 14  1  0
 14 15  1  0
 15 16  1  0
 16 17  2  0
 17 18  1  0
 18 19  2  0
 19 20  1  0
 20 21  2  0
 21 22  1  0
 22 23  2  0
 23 24  1  0
 24 25  2  0
 14 26  1  0
 26 27  2  0
 27 28  1  0
 28 29  2  0
 29 30  1  0
 29 31  1  0
 31 32  2  0
 32  9  1  0
 25 16  1  0
 32 26  1  0
 25 20  1  0
  1 33  1  0
  1 34  1  0
  1 35  1  0
  2 36  1  0
  2 37  1  0
  7 38  1  0
  7 39  1  0
  7 40  1  0
  8 41  1  0
  8 42  1  0
 15 43  1  0
 15 44  1  0
 17 45  1  0
 18 46  1  0
 19 47  1  0
 21 48  1  0
 22 49  1  0
 23 50  1  0
 24 51  1  0
 27 52  1  0
 28 53  1  0
 31 54  1  0
M  CHG  1  13  -1
M  END
>  <meeko>  (128) 
{"free_energy": -4.88, "intermolecular_energy": -7.26, "internal_energy": -1.92, "cluster_size": 25, "cluster_id": 117, "rank_in_cluster": 13}

$$$$

     RDKit          3D

 54 57  0  0  0  0  0  0  0  0999 V2000
   15.2040   39.9990   17.2760 C   0  0  0  0  0  0  0  0  0  0  0  0
   15.9500   39.0070   16.3800 C   0  0  0  0  0  0  0  0  0  0  0  0
   17.0890   39.6440   15.8250 O   0  0  0  0  0  0  0  0  0  0  0  0
   17.4010   39.4600   14.5250 C   0  0  0  0  0  0  0  0  0  0  0  0
   18.5380   39.1910   14.1320 O   0  0  0  0  0  0  0  0  0  0  0  0
   16.2650   39.6110   13.7200 N   0  0  0  0  0  0  0  0  0  0  0  0
   15.6120   40.9100   13.5270 C   0  0  0  0  0  0  0  0  0  0  0  0
   15.6490   38.4590   13.0480 C   0  0  0  0  0  0  0  0  0  0  0  0
   14.3400   38.8170   12.3840 C   0  0  0  0  0  0  0  0  0  0  0  0
   13.0760   38.8920   12.9430 C   0  0  0  0  0  0  0  0  0  0  0  0
   12.6460   38.6790   14.3600 C   0  0  0  0  0  0  0  0  0  0  0  0
   12.0050   37.6440   14.6430 O   0  0  0  0  0  0  0  0  0  0  0  0
   12.9060   39.5290   15.2390 O   0  0  0  0  0  1  0  0  0  0  0  0
   12.1480   39.2010   11.9260 N   0  0  0  0  0  0  0  0  0  0  0  0
   10.6990   39.3910   12.0430 C   0  0  0  0  0  0  0  0  0  0  0  0
    9.8560   38.1610   11.6800 C   0  0  0  0  0  0  0  0  0  0  0  0
    9.8110   37.0330   12.5380 C   0  0  0  0  0  0  0  0  0  0  0  0
    9.0400   35.9050   12.2100 C   0  0  0  0  0  0  0  0  0  0  0  0
    8.3010   35.8820   11.0160 C   0  0  0  0  0  0  0  0  0  0  0  0
    8.3300   36.9890   10.1470 C   0  0  0  0  0  0  0  0  0  0  0  0
    7.5820   36.9490    8.9530 C   0  0  0  0  0  0  0  0  0  0  0  0
    7.5970   38.0430    8.0690 C   0  0  0  0  0  0  0  0  0  0  0  0
    8.3610   39.1820    8.3800 C   0  0  0  0  0  0  0  0  0  0  0  0
    9.1110   39.2280    9.5710 C   0  0  0  0  0  0  0  0  0  0  0  0
    9.1070   38.1350   10.4720 C   0  0  0  0  0  0  0  0  0  0  0  0
   12.8180   39.3220   10.7150 C   0  0  0  0  0  0  0  0  0  0  0  0
   12.3590   39.6010    9.4110 C   0  0  0  0  0  0  0  0  0  0  0  0
   13.2740   39.6760    8.3480 C   0  0  0  0  0  0  0  0  0  0  0  0
   14.6430   39.4730    8.5910 C   0  0  0  0  0  0  0  0  0  0  0  0
   15.5310   39.5470    7.5710 F   0  0  0  0  0  0  0  0  0  0  0  0
   15.0930   39.1900    9.8960 C   0  0  0  0  0  0  0  0  0  0  0  0
   14.1950   39.1020   10.9860 C   0  0  0  0  0  0  0  0  0  0  0  0
   15.3902   39.7515   18.3315 H   0  0  0  0  0  0  0  0  0  0  0  0
   15.5607   41.0190   17.0702 H   0  0  0  0  0  0  0  0  0  0  0  0
   14.1251   39.9394   17.0702 H   0  0  0  0  0  0  0  0  0  0  0  0
   16.2681   38.1396   16.9769 H   0  0  0  0  0  0  0  0  0  0  0  0
   15.2858   38.6682   15.5713 H   0  0  0  0  0  0  0  0  0  0  0  0
   15.3875   41.3567   14.5068 H   0  0  0  0  0  0  0  0  0  0  0  0
   16.2819   41.5772   12.9647 H   0  0  0  0  0  0  0  0  0  0  0  0
   14.6769   40.7704   12.9647 H   0  0  0  0  0  0  0  0  0  0  0  0
   16.3433   38.0831   12.2821 H   0  0  0  0  0  0  0  0  0  0  0  0
   15.4419   37.6945   13.8113 H   0  0  0  0  0  0  0  0  0  0  0  0
   10.4730   39.6653   13.0840 H   0  0  0  0  0  0  0  0  0  0  0  0
   10.4305   40.1744   11.3190 H   0  0  0  0  0  0  0  0  0  0  0  0
   10.3883   37.0411   13.4743 H   0  0  0  0  0  0  0  0  0  0  0  0
    9.0153   35.0397   12.8887 H   0  0  0  0  0  0  0  0  0  0  0  0
    7.6988   34.9979   10.7596 H   0  0  0  0  0  0  0  0  0  0  0  0
    6.9837   36.0581    8.7114 H   0  0  0  0  0  0  0  0  0  0  0  0
    7.0130   38.0077    7.1375 H   0  0  0  0  0  0  0  0  0  0  0  0
    8.3728   40.0394    7.6910 H   0  0  0  0  0  0  0  0  0  0  0  0
    9.7067   40.1228    9.8043 H   0  0  0  0  0  0  0  0  0  0  0  0
   11.2862   39.7596    9.2267 H   0  0  0  0  0  0  0  0  0  0  0  0
   12.9203   39.8928    7.3292 H   0  0  0  0  0  0  0  0  0  0  0  0
   16.1676   39.0338   10.0715 H   0  0  0  0  0  0  0  0  0  0  0  0
  1  2  1  0
  2  3  1  0
  3  4  1  0
  4  5  2  0
  4  6  1  0
  6  7  1  0
  6  8  1  0
  8  9  1  0
  9 10  2  0
 10 11  1  0
 11 12  2  0
 11 13  1  0
 10 14  1  0
 14 15  1  0
 15 16  1  0
 16 17  2  0
 17 18  1  0
 18 19  2  0
 19 20  1  0
 20 21  2  0
 21 22  1  0
 22 23  2  0
 23 24  1  0
 24 25  2  0
 14 26  1  0
 26 27  2  0
 27 28  1  0
 28 29  2  0
 29 30  1  0
 29 31  1  0
 31 32  2  0
 32  9  1  0
 25 16  1  0
 32 26  1  0
 25 20  1  0
  1 33  1  0
  1 34  1  0
  1 35  1  0
  2 36  1  0
  2 37  1  0
  7 38  1  0
  7 39  1  0
  7 40  1  0
  8 41  1  0
  8 42  1  0
 15 43  1  0
 15 44  1  0
 17 45  1  0
 18 46  1  0
 19 47  1  0
 21 48  1  0
 22 49  1  0
 23 50  1  0
 24 51  1  0
 27 52  1  0
 28 53  1  0
 31 54  1  0
M  CHG  1  13  -1
M  END
>  <meeko>  (129) 
{"free_energy": -4.64, "intermolecular_energy": -7.02, "internal_energy": -2.02, "cluster_size": 167, "cluster_id": 22, "rank_in_cluster": 160}

$$$$

     RDKit          3D

 54 57  0  0  0  0  0  0  0  0999 V2000
   15.3000   35.4810   20.1270 C   0  0  0  0  0  0  0  0  0  0  0  0
   14.8970   36.3860   18.9600 C   0  0  0  0  0  0  0  0  0  0  0  0
   13.4890   36.3400   18.7980 O   0  0  0  0  0  0  0  0  0  0  0  0
   12.6820   36.8920   19.7290 C   0  0  0  0  0  0  0  0  0  0  0  0
   12.7740   36.6500   20.9340 O   0  0  0  0  0  0  0  0  0  0  0  0
   11.7600   37.7590   19.1300 N   0  0  0  0  0  0  0  0  0  0  0  0
   10.9590   38.7080   19.9110 C   0  0  0  0  0  0  0  0  0  0  0  0
   11.5270   37.7390   17.6790 C   0  0  0  0  0  0  0  0  0  0  0  0
   10.2040   37.1050   17.3210 C   0  0  0  0  0  0  0  0  0  0  0  0
    8.9250   37.5960   17.5200 C   0  0  0  0  0  0  0  0  0  0  0  0
    8.4850   38.8980   18.1100 C   0  0  0  0  0  0  0  0  0  0  0  0
    7.4820   38.9110   18.8560 O   0  0  0  0  0  0  0  0  0  0  0  0
    9.0970   39.9560   17.8460 O   0  0  0  0  0  1  0  0  0  0  0  0
    7.9950   36.6290   17.0840 N   0  0  0  0  0  0  0  0  0  0  0  0
    6.5310   36.7070   17.0880 C   0  0  0  0  0  0  0  0  0  0  0  0
    5.8830   36.5830   18.4730 C   0  0  0  0  0  0  0  0  0  0  0  0
    6.6060   36.0460   19.5680 C   0  0  0  0  0  0  0  0  0  0  0  0
    6.0160   35.9310   20.8380 C   0  0  0  0  0  0  0  0  0  0  0  0
    4.6900   36.3480   21.0380 C   0  0  0  0  0  0  0  0  0  0  0  0
    3.9500   36.8820   19.9660 C   0  0  0  0  0  0  0  0  0  0  0  0
    2.6200   37.2950   20.1840 C   0  0  0  0  0  0  0  0  0  0  0  0
    1.8620   37.8310   19.1280 C   0  0  0  0  0  0  0  0  0  0  0  0
    2.4340   37.9560   17.8500 C   0  0  0  0  0  0  0  0  0  0  0  0
    3.7620   37.5450   17.6250 C   0  0  0  0  0  0  0  0  0  0  0  0
    4.5400   37.0030   18.6780 C   0  0  0  0  0  0  0  0  0  0  0  0
    8.6780   35.5180   16.6050 C   0  0  0  0  0  0  0  0  0  0  0  0
    8.2250   34.2920   16.0760 C   0  0  0  0  0  0  0  0  0  0  0  0
    9.1540   33.3270   15.6510 C   0  0  0  0  0  0  0  0  0  0  0  0
   10.5300   33.5920   15.7540 C   0  0  0  0  0  0  0  0  0  0  0  0
   11.4300   32.6670   15.3420 F   0  0  0  0  0  0  0  0  0  0  0  0
   10.9750   34.8170   16.2870 C   0  0  0  0  0  0  0  0  0  0  0  0
   10.0640   35.8060   16.7300 C   0  0  0  0  0  0  0  0  0  0  0  0
   15.0749   35.9865   21.0777 H   0  0  0  0  0  0  0  0  0  0  0  0
   14.7369   34.5377   20.0709 H   0  0  0  0  0  0  0  0  0  0  0  0
   16.3778   35.2685   20.0709 H   0  0  0  0  0  0  0  0  0  0  0  0
   15.2093   37.4194   19.1711 H   0  0  0  0  0  0  0  0  0  0  0  0
   15.3863   36.0393   18.0378 H   0  0  0  0  0  0  0  0  0  0  0  0
   11.1149   38.5233   20.9841 H   0  0  0  0  0  0  0  0  0  0  0  0
   11.2671   39.7355   19.6672 H   0  0  0  0  0  0  0  0  0  0  0  0
    9.8944   38.5768   19.6672 H   0  0  0  0  0  0  0  0  0  0  0  0
   11.5367   38.7733   17.3046 H   0  0  0  0  0  0  0  0  0  0  0  0
   12.3246   37.1380   17.2178 H   0  0  0  0  0  0  0  0  0  0  0  0
    6.2390   37.6771   16.6594 H   0  0  0  0  0  0  0  0  0  0  0  0
    6.1739   35.8477   16.5015 H   0  0  0  0  0  0  0  0  0  0  0  0
    7.6445   35.7144   19.4211 H   0  0  0  0  0  0  0  0  0  0  0  0
    6.5933   35.5140   21.6764 H   0  0  0  0  0  0  0  0  0  0  0  0
    4.2293   36.2573   22.0328 H   0  0  0  0  0  0  0  0  0  0  0  0
    2.1733   37.1975   21.1845 H   0  0  0  0  0  0  0  0  0  0  0  0
    0.8242   38.1517   19.3014 H   0  0  0  0  0  0  0  0  0  0  0  0
    1.8425   38.3761   17.0232 H   0  0  0  0  0  0  0  0  0  0  0  0
    4.2001   37.6458   16.6210 H   0  0  0  0  0  0  0  0  0  0  0  0
    7.1464   34.0913   15.9961 H   0  0  0  0  0  0  0  0  0  0  0  0
    8.8054   32.3683   15.2395 H   0  0  0  0  0  0  0  0  0  0  0  0
   12.0554   35.0100   16.3609 H   0  0  0  0  0  0  0  0  0  0  0  0
  1  2  1  0
  2  3  1  0
  3  4  1  0
  4  5  2  0
  4  6  1  0
  6  7  1  0
  6  8  1  0
  8  9  1  0
  9 10  2  0
 10 11  1  0
 11 12  2  0
 11 13  1  0
 10 14  1  0
 14 15  1  0
 15 16  1  0
 16 17  2  0
 17 18  1  0
 18 19  2  0
 19 20  1  0
 20 21  2  0
 21 22  1  0
 22 23  2  0
 23 24  1  0
 24 25  2  0
 14 26  1  0
 26 27  2  0
 27 28  1  0
 28 29  2  0
 29 30  1  0
 29 31  1  0
 31 32  2  0
 32  9  1  0
 25 16  1  0
 32 26  1  0
 25 20  1  0
  1 33  1  0
  1 34  1  0
  1 35  1  0
  2 36  1  0
  2 37  1  0
  7 38  1  0
  7 39  1  0
  7 40  1  0
  8 41  1  0
  8 42  1  0
 15 43  1  0
 15 44  1  0
 17 45  1  0
 18 46  1  0
 19 47  1  0
 21 48  1  0
 22 49  1  0
 23 50  1  0
 24 51  1  0
 27 52  1  0
 28 53  1  0
 31 54  1  0
M  CHG  1  13  -1
M  END
>  <meeko>  (130) 
{"free_energy": -6.77, "intermolecular_energy": -9.15, "internal_energy": -1.65, "cluster_size": 136, "cluster_id": 17, "rank_in_cluster": 3}

$$$$

     RDKit          3D

 54 57  0  0  0  0  0  0  0  0999 V2000
    7.7360   38.3990    8.0990 C   0  0  0  0  0  0  0  0  0  0  0  0
    8.8090   39.1330    8.9060 C   0  0  0  0  0  0  0  0  0  0  0  0
    9.9930   38.3510    8.9300 O   0  0  0  0  0  0  0  0  0  0  0  0
   10.6440   38.1440   10.0950 C   0  0  0  0  0  0  0  0  0  0  0  0
   11.6430   38.7800   10.4350 O   0  0  0  0  0  0  0  0  0  0  0  0
   10.0200   37.1300   10.8330 N   0  0  0  0  0  0  0  0  0  0  0  0
   10.4260   35.7240   10.7260 C   0  0  0  0  0  0  0  0  0  0  0  0
    8.8990   37.4250   11.7360 C   0  0  0  0  0  0  0  0  0  0  0  0
    9.3430   37.5560   13.1740 C   0  0  0  0  0  0  0  0  0  0  0  0
    9.4430   36.5740   14.1440 C   0  0  0  0  0  0  0  0  0  0  0  0
    9.1780   35.1050   14.0440 C   0  0  0  0  0  0  0  0  0  0  0  0
    8.1410   34.7200   13.4620 O   0  0  0  0  0  0  0  0  0  0  0  0
    9.9690   34.2790   14.5500 O   0  0  0  0  0  1  0  0  0  0  0  0
    9.8390   37.1730   15.3580 N   0  0  0  0  0  0  0  0  0  0  0  0
   10.0830   36.5310   16.6530 C   0  0  0  0  0  0  0  0  0  0  0  0
    8.8170   36.1550   17.4350 C   0  0  0  0  0  0  0  0  0  0  0  0
    7.8620   35.2630   16.8850 C   0  0  0  0  0  0  0  0  0  0  0  0
    6.7020   34.9160   17.5980 C   0  0  0  0  0  0  0  0  0  0  0  0
    6.4720   35.4570   18.8730 C   0  0  0  0  0  0  0  0  0  0  0  0
    7.4040   36.3470   19.4400 C   0  0  0  0  0  0  0  0  0  0  0  0
    7.1580   36.8800   20.7220 C   0  0  0  0  0  0  0  0  0  0  0  0
    8.0750   37.7710   21.3070 C   0  0  0  0  0  0  0  0  0  0  0  0
    9.2430   38.1300   20.6110 C   0  0  0  0  0  0  0  0  0  0  0  0
    9.4950   37.6010   19.3310 C   0  0  0  0  0  0  0  0  0  0  0  0
    8.5820   36.7020   18.7260 C   0  0  0  0  0  0  0  0  0  0  0  0
    9.9930   38.5400   15.1660 C   0  0  0  0  0  0  0  0  0  0  0  0
   10.3550   39.5780   16.0490 C   0  0  0  0  0  0  0  0  0  0  0  0
   10.4440   40.8990   15.5780 C   0  0  0  0  0  0  0  0  0  0  0  0
   10.1730   41.1770   14.2270 C   0  0  0  0  0  0  0  0  0  0  0  0
   10.2610   42.4470   13.7660 F   0  0  0  0  0  0  0  0  0  0  0  0
    9.8080   40.1350   13.3520 C   0  0  0  0  0  0  0  0  0  0  0  0
    9.7030   38.7950   13.7990 C   0  0  0  0  0  0  0  0  0  0  0  0
    7.0274   37.9143    8.7868 H   0  0  0  0  0  0  0  0  0  0  0  0
    7.1975   39.1188    7.4651 H   0  0  0  0  0  0  0  0  0  0  0  0
    8.2117   37.6362    7.4651 H   0  0  0  0  0  0  0  0  0  0  0  0
    9.0202   40.1057    8.4377 H   0  0  0  0  0  0  0  0  0  0  0  0
    8.4521   39.2939    9.9340 H   0  0  0  0  0  0  0  0  0  0  0  0
   10.5484   35.3000   11.7336 H   0  0  0  0  0  0  0  0  0  0  0  0
    9.6541   35.1598   10.1821 H   0  0  0  0  0  0  0  0  0  0  0  0
   11.3799   35.6582   10.1821 H   0  0  0  0  0  0  0  0  0  0  0  0
    8.4309   38.3697   11.4225 H   0  0  0  0  0  0  0  0  0  0  0  0
    8.1888   36.5870   11.6772 H   0  0  0  0  0  0  0  0  0  0  0  0
   10.6609   35.6120   16.4756 H   0  0  0  0  0  0  0  0  0  0  0  0
   10.6184   37.2693   17.2680 H   0  0  0  0  0  0  0  0  0  0  0  0
    8.0317   34.8363   15.8854 H   0  0  0  0  0  0  0  0  0  0  0  0
    5.9734   34.2199   17.1568 H   0  0  0  0  0  0  0  0  0  0  0  0
    5.5628   35.1853   19.4294 H   0  0  0  0  0  0  0  0  0  0  0  0
    6.2450   36.5976   21.2667 H   0  0  0  0  0  0  0  0  0  0  0  0
    7.8792   38.1862   22.3066 H   0  0  0  0  0  0  0  0  0  0  0  0
    9.9617   38.8261   21.0680 H   0  0  0  0  0  0  0  0  0  0  0  0
   10.4111   37.8888   18.7944 H   0  0  0  0  0  0  0  0  0  0  0  0
   10.5674   39.3541   17.1048 H   0  0  0  0  0  0  0  0  0  0  0  0
   10.7246   41.7121   16.2637 H   0  0  0  0  0  0  0  0  0  0  0  0
    9.5997   40.3674   12.2972 H   0  0  0  0  0  0  0  0  0  0  0  0
  1  2  1  0
  2  3  1  0
  3  4  1  0
  4  5  2  0
  4  6  1  0
  6  7  1  0
  6  8  1  0
  8  9  1  0
  9 10  2  0
 10 11  1  0
 11 12  2  0
 11 13  1  0
 10 14  1  0
 14 15  1  0
 15 16  1  0
 16 17  2  0
 17 18  1  0
 18 19  2  0
 19 20  1  0
 20 21  2  0
 21 22  1  0
 22 23  2  0
 23 24  1  0
 24 25  2  0
 14 26  1  0
 26 27  2  0
 27 28  1  0
 28 29  2  0
 29 30  1  0
 29 31  1  0
 31 32  2  0
 32  9  1  0
 25 16  1  0
 32 26  1  0
 25 20  1  0
  1 33  1  0
  1 34  1  0
  1 35  1  0
  2 36  1  0
  2 37  1  0
  7 38  1  0
  7 39  1  0
  7 40  1  0
  8 41  1  0
  8 42  1  0
 15 43  1  0
 15 44  1  0
 17 45  1  0
 18 46  1  0
 19 47  1  0
 21 48  1  0
 22 49  1  0
 23 50  1  0
 24 51  1  0
 27 52  1  0
 28 53  1  0
 31 54  1  0
M  CHG  1  13  -1
M  END
>  <meeko>  (131) 
{"free_energy": -6.12, "intermolecular_energy": -8.51, "internal_energy": -1.85, "cluster_size": 136, "cluster_id": 23, "rank_in_cluster": 34}

$$$$

     RDKit          3D

 54 57  0  0  0  0  0  0  0  0999 V2000
   12.7020   42.4960    8.1270 C   0  0  0  0  0  0  0  0  0  0  0  0
   13.9410   41.6040    8.0130 C   0  0  0  0  0  0  0  0  0  0  0  0
   13.9870   40.7240    9.1250 O   0  0  0  0  0  0  0  0  0  0  0  0
   13.2860   39.5700    9.1030 C   0  0  0  0  0  0  0  0  0  0  0  0
   12.6040   39.2090    8.1420 O   0  0  0  0  0  0  0  0  0  0  0  0
   13.4570   38.8680   10.3030 N   0  0  0  0  0  0  0  0  0  0  0  0
   13.7690   37.4350   10.3320 C   0  0  0  0  0  0  0  0  0  0  0  0
   13.3020   39.5340   11.6030 C   0  0  0  0  0  0  0  0  0  0  0  0
   12.3040   38.8290   12.4920 C   0  0  0  0  0  0  0  0  0  0  0  0
   12.3380   38.6550   13.8640 C   0  0  0  0  0  0  0  0  0  0  0  0
   13.3420   39.1380   14.8630 C   0  0  0  0  0  0  0  0  0  0  0  0
   14.3590   38.4440   15.0760 O   0  0  0  0  0  0  0  0  0  0  0  0
   13.1560   40.2060   15.4870 O   0  0  0  0  0  1  0  0  0  0  0  0
   11.2260   37.8770   14.2510 N   0  0  0  0  0  0  0  0  0  0  0  0
   10.8390   37.4460   15.5980 C   0  0  0  0  0  0  0  0  0  0  0  0
   10.1910   36.0570   15.6690 C   0  0  0  0  0  0  0  0  0  0  0  0
   10.8280   34.9280   15.0970 C   0  0  0  0  0  0  0  0  0  0  0  0
   10.2380   33.6540   15.1600 C   0  0  0  0  0  0  0  0  0  0  0  0
    8.9970   33.4860   15.7950 C   0  0  0  0  0  0  0  0  0  0  0  0
    8.3430   34.5920   16.3700 C   0  0  0  0  0  0  0  0  0  0  0  0
    7.0970   34.4050   17.0030 C   0  0  0  0  0  0  0  0  0  0  0  0
    6.4250   35.4960   17.5830 C   0  0  0  0  0  0  0  0  0  0  0  0
    7.0000   36.7780   17.5310 C   0  0  0  0  0  0  0  0  0  0  0  0
    8.2440   36.9720   16.9000 C   0  0  0  0  0  0  0  0  0  0  0  0
    8.9340   35.8840   16.3110 C   0  0  0  0  0  0  0  0  0  0  0  0
   10.4800   37.5530   13.1250 C   0  0  0  0  0  0  0  0  0  0  0  0
    9.3020   36.7940   12.9640 C   0  0  0  0  0  0  0  0  0  0  0  0
    8.7450   36.6290   11.6850 C   0  0  0  0  0  0  0  0  0  0  0  0
    9.3640   37.2250   10.5720 C   0  0  0  0  0  0  0  0  0  0  0  0
    8.8290   37.0730    9.3380 F   0  0  0  0  0  0  0  0  0  0  0  0
   10.5420   37.9780   10.7410 C   0  0  0  0  0  0  0  0  0  0  0  0
   11.1320   38.1560   12.0160 C   0  0  0  0  0  0  0  0  0  0  0  0
   12.4679   42.6645    9.1885 H   0  0  0  0  0  0  0  0  0  0  0  0
   12.8987   43.4611    7.6372 H   0  0  0  0  0  0  0  0  0  0  0  0
   11.8492   42.0033    7.6372 H   0  0  0  0  0  0  0  0  0  0  0  0
   13.8887   41.0190    7.0829 H   0  0  0  0  0  0  0  0  0  0  0  0
   14.8460   42.2291    7.9991 H   0  0  0  0  0  0  0  0  0  0  0  0
   13.8426   37.0968   11.3761 H   0  0  0  0  0  0  0  0  0  0  0  0
   12.9716   36.8757    9.8208 H   0  0  0  0  0  0  0  0  0  0  0  0
   14.7268   37.2579    9.8208 H   0  0  0  0  0  0  0  0  0  0  0  0
   14.2778   39.5512   12.1105 H   0  0  0  0  0  0  0  0  0  0  0  0
   12.9282   40.5518   11.4177 H   0  0  0  0  0  0  0  0  0  0  0  0
   11.7420   37.4346   16.2261 H   0  0  0  0  0  0  0  0  0  0  0  0
   10.0777   38.1604   15.9444 H   0  0  0  0  0  0  0  0  0  0  0  0
   11.7995   35.0506   14.5958 H   0  0  0  0  0  0  0  0  0  0  0  0
   10.7483   32.7887   14.7119 H   0  0  0  0  0  0  0  0  0  0  0  0
    8.5352   32.4888   15.8432 H   0  0  0  0  0  0  0  0  0  0  0  0
    6.6485   33.4014   17.0434 H   0  0  0  0  0  0  0  0  0  0  0  0
    5.4529   35.3468   18.0756 H   0  0  0  0  0  0  0  0  0  0  0  0
    6.4764   37.6324   17.9847 H   0  0  0  0  0  0  0  0  0  0  0  0
    8.6846   37.9793   16.8641 H   0  0  0  0  0  0  0  0  0  0  0  0
    8.8204   36.3321   13.8385 H   0  0  0  0  0  0  0  0  0  0  0  0
    7.8279   36.0357   11.5546 H   0  0  0  0  0  0  0  0  0  0  0  0
   11.0152   38.4390    9.8615 H   0  0  0  0  0  0  0  0  0  0  0  0
  1  2  1  0
  2  3  1  0
  3  4  1  0
  4  5  2  0
  4  6  1  0
  6  7  1  0
  6  8  1  0
  8  9  1  0
  9 10  2  0
 10 11  1  0
 11 12  2  0
 11 13  1  0
 10 14  1  0
 14 15  1  0
 15 16  1  0
 16 17  2  0
 17 18  1  0
 18 19  2  0
 19 20  1  0
 20 21  2  0
 21 22  1  0
 22 23  2  0
 23 24  1  0
 24 25  2  0
 14 26  1  0
 26 27  2  0
 27 28  1  0
 28 29  2  0
 29 30  1  0
 29 31  1  0
 31 32  2  0
 32  9  1  0
 25 16  1  0
 32 26  1  0
 25 20  1  0
  1 33  1  0
  1 34  1  0
  1 35  1  0
  2 36  1  0
  2 37  1  0
  7 38  1  0
  7 39  1  0
  7 40  1  0
  8 41  1  0
  8 42  1  0
 15 43  1  0
 15 44  1  0
 17 45  1  0
 18 46  1  0
 19 47  1  0
 21 48  1  0
 22 49  1  0
 23 50  1  0
 24 51  1  0
 27 52  1  0
 28 53  1  0
 31 54  1  0
M  CHG  1  13  -1
M  END
>  <meeko>  (132) 
{"free_energy": -6.58, "intermolecular_energy": -8.97, "internal_energy": -1.58, "cluster_size": 191, "cluster_id": 13, "rank_in_cluster": 9}

$$$$

     RDKit          3D

 54 57  0  0  0  0  0  0  0  0999 V2000
    9.0860   38.5280   18.1980 C   0  0  0  0  0  0  0  0  0  0  0  0
    9.8920   39.7300   17.6990 C   0  0  0  0  0  0  0  0  0  0  0  0
    9.7720   39.8200   16.2880 O   0  0  0  0  0  0  0  0  0  0  0  0
   10.1990   40.9260   15.6420 C   0  0  0  0  0  0  0  0  0  0  0  0
    9.4580   41.8620   15.3400 O   0  0  0  0  0  0  0  0  0  0  0  0
   11.5730   40.8450   15.3850 N   0  0  0  0  0  0  0  0  0  0  0  0
   12.5140   41.8770   15.8360 C   0  0  0  0  0  0  0  0  0  0  0  0
   12.1410   39.7270   14.6180 C   0  0  0  0  0  0  0  0  0  0  0  0
   11.1270   39.0930   13.6960 C   0  0  0  0  0  0  0  0  0  0  0  0
   10.7050   39.5180   12.4480 C   0  0  0  0  0  0  0  0  0  0  0  0
   11.1500   40.6970   11.6420 C   0  0  0  0  0  0  0  0  0  0  0  0
   10.2830   41.4070   11.0870 O   0  0  0  0  0  0  0  0  0  0  0  0
   12.3660   40.9560   11.5090 O   0  0  0  0  0  1  0  0  0  0  0  0
    9.6970   38.6450   11.9880 N   0  0  0  0  0  0  0  0  0  0  0  0
    8.9620   38.6900   10.7200 C   0  0  0  0  0  0  0  0  0  0  0  0
    8.9290   37.3650    9.9470 C   0  0  0  0  0  0  0  0  0  0  0  0
    9.6540   36.2380   10.4070 C   0  0  0  0  0  0  0  0  0  0  0  0
    9.6260   35.0220    9.7020 C   0  0  0  0  0  0  0  0  0  0  0  0
    8.8730   34.9120    8.5220 C   0  0  0  0  0  0  0  0  0  0  0  0
    8.1450   36.0180    8.0440 C   0  0  0  0  0  0  0  0  0  0  0  0
    7.3950   35.8890    6.8560 C   0  0  0  0  0  0  0  0  0  0  0  0
    6.6610   36.9810    6.3600 C   0  0  0  0  0  0  0  0  0  0  0  0
    6.6750   38.2050    7.0510 C   0  0  0  0  0  0  0  0  0  0  0  0
    7.4230   38.3410    8.2370 C   0  0  0  0  0  0  0  0  0  0  0  0
    8.1680   37.2510    8.7510 C   0  0  0  0  0  0  0  0  0  0  0  0
    9.4730   37.6610   12.9420 C   0  0  0  0  0  0  0  0  0  0  0  0
    8.5750   36.5740   12.9780 C   0  0  0  0  0  0  0  0  0  0  0  0
    8.5640   35.7100   14.0850 C   0  0  0  0  0  0  0  0  0  0  0  0
    9.4520   35.9350   15.1520 C   0  0  0  0  0  0  0  0  0  0  0  0
    9.4490   35.1030   16.2210 F   0  0  0  0  0  0  0  0  0  0  0  0
   10.3430   37.0240   15.1100 C   0  0  0  0  0  0  0  0  0  0  0  0
   10.3720   37.9160   14.0110 C   0  0  0  0  0  0  0  0  0  0  0  0
    9.0812   38.5209   19.2980 H   0  0  0  0  0  0  0  0  0  0  0  0
    8.0528   38.5999   17.8273 H   0  0  0  0  0  0  0  0  0  0  0  0
    9.5448   37.5995   17.8273 H   0  0  0  0  0  0  0  0  0  0  0  0
    9.5041   40.6501   18.1605 H   0  0  0  0  0  0  0  0  0  0  0  0
   10.9501   39.6041   17.9722 H   0  0  0  0  0  0  0  0  0  0  0  0
   12.5344   41.8993   16.9356 H   0  0  0  0  0  0  0  0  0  0  0  0
   13.5201   41.6474   15.4552 H   0  0  0  0  0  0  0  0  0  0  0  0
   12.1928   42.8577   15.4552 H   0  0  0  0  0  0  0  0  0  0  0  0
   12.9816   40.1018   14.0156 H   0  0  0  0  0  0  0  0  0  0  0  0
   12.4715   38.9602   15.3341 H   0  0  0  0  0  0  0  0  0  0  0  0
    7.9248   38.9858   10.9362 H   0  0  0  0  0  0  0  0  0  0  0  0
    9.4942   39.4086   10.0794 H   0  0  0  0  0  0  0  0  0  0  0  0
   10.2478   36.3156   11.3297 H   0  0  0  0  0  0  0  0  0  0  0  0
   10.1939   34.1568   10.0748 H   0  0  0  0  0  0  0  0  0  0  0  0
    8.8519   33.9605    7.9704 H   0  0  0  0  0  0  0  0  0  0  0  0
    7.3844   34.9308    6.3159 H   0  0  0  0  0  0  0  0  0  0  0  0
    6.0772   36.8776    5.4334 H   0  0  0  0  0  0  0  0  0  0  0  0
    6.1000   39.0594    6.6644 H   0  0  0  0  0  0  0  0  0  0  0  0
    7.4287   39.3035    8.7695 H   0  0  0  0  0  0  0  0  0  0  0  0
    7.8838   36.4031   12.1396 H   0  0  0  0  0  0  0  0  0  0  0  0
    7.8645   34.8617   14.1173 H   0  0  0  0  0  0  0  0  0  0  0  0
   11.0332   37.1858   15.9511 H   0  0  0  0  0  0  0  0  0  0  0  0
  1  2  1  0
  2  3  1  0
  3  4  1  0
  4  5  2  0
  4  6  1  0
  6  7  1  0
  6  8  1  0
  8  9  1  0
  9 10  2  0
 10 11  1  0
 11 12  2  0
 11 13  1  0
 10 14  1  0
 14 15  1  0
 15 16  1  0
 16 17  2  0
 17 18  1  0
 18 19  2  0
 19 20  1  0
 20 21  2  0
 21 22  1  0
 22 23  2  0
 23 24  1  0
 24 25  2  0
 14 26  1  0
 26 27  2  0
 27 28  1  0
 28 29  2  0
 29 30  1  0
 29 31  1  0
 31 32  2  0
 32  9  1  0
 25 16  1  0
 32 26  1  0
 25 20  1  0
  1 33  1  0
  1 34  1  0
  1 35  1  0
  2 36  1  0
  2 37  1  0
  7 38  1  0
  7 39  1  0
  7 40  1  0
  8 41  1  0
  8 42  1  0
 15 43  1  0
 15 44  1  0
 17 45  1  0
 18 46  1  0
 19 47  1  0
 21 48  1  0
 22 49  1  0
 23 50  1  0
 24 51  1  0
 27 52  1  0
 28 53  1  0
 31 54  1  0
M  CHG  1  13  -1
M  END
>  <meeko>  (133) 
{"free_energy": -5.68, "intermolecular_energy": -8.06, "internal_energy": -1.41, "cluster_size": 326, "cluster_id": 11, "rank_in_cluster": 195}

$$$$

     RDKit          3D

 54 57  0  0  0  0  0  0  0  0999 V2000
    9.5930   33.2600   16.8730 C   0  0  0  0  0  0  0  0  0  0  0  0
    9.2460   33.2450   15.3830 C   0  0  0  0  0  0  0  0  0  0  0  0
   10.1870   34.0380   14.6760 O   0  0  0  0  0  0  0  0  0  0  0  0
   10.7340   35.1230   15.2640 C   0  0  0  0  0  0  0  0  0  0  0  0
   11.9410   35.2410   15.4800 O   0  0  0  0  0  0  0  0  0  0  0  0
    9.7440   36.0650   15.5740 N   0  0  0  0  0  0  0  0  0  0  0  0
    9.6650   36.7100   16.8900 C   0  0  0  0  0  0  0  0  0  0  0  0
    8.7120   36.4350   14.5970 C   0  0  0  0  0  0  0  0  0  0  0  0
    9.2670   37.2700   13.4660 C   0  0  0  0  0  0  0  0  0  0  0  0
   10.0330   38.4200   13.5340 C   0  0  0  0  0  0  0  0  0  0  0  0
   10.5590   39.1470   14.7310 C   0  0  0  0  0  0  0  0  0  0  0  0
    9.8480   40.0300   15.2580 O   0  0  0  0  0  0  0  0  0  0  0  0
   11.6960   38.8890   15.1830 O   0  0  0  0  0  1  0  0  0  0  0  0
   10.2650   38.8890   12.2230 N   0  0  0  0  0  0  0  0  0  0  0  0
   11.0300   40.0640   11.7980 C   0  0  0  0  0  0  0  0  0  0  0  0
   12.2210   39.7610   10.8790 C   0  0  0  0  0  0  0  0  0  0  0  0
   13.1030   38.6890   11.1640 C   0  0  0  0  0  0  0  0  0  0  0  0
   14.1950   38.4070   10.3250 C   0  0  0  0  0  0  0  0  0  0  0  0
   14.4270   39.1950    9.1860 C   0  0  0  0  0  0  0  0  0  0  0  0
   13.5670   40.2670    8.8830 C   0  0  0  0  0  0  0  0  0  0  0  0
   13.8150   41.0480    7.7350 C   0  0  0  0  0  0  0  0  0  0  0  0
   12.9690   42.1240    7.4130 C   0  0  0  0  0  0  0  0  0  0  0  0
   11.8700   42.4210    8.2400 C   0  0  0  0  0  0  0  0  0  0  0  0
   11.6170   41.6460    9.3870 C   0  0  0  0  0  0  0  0  0  0  0  0
   12.4590   40.5580    9.7260 C   0  0  0  0  0  0  0  0  0  0  0  0
    9.6470   38.0380   11.3160 C   0  0  0  0  0  0  0  0  0  0  0  0
    9.5630   38.0640    9.9090 C   0  0  0  0  0  0  0  0  0  0  0  0
    8.8670   37.0510    9.2290 C   0  0  0  0  0  0  0  0  0  0  0  0
    8.2580   36.0150    9.9580 C   0  0  0  0  0  0  0  0  0  0  0  0
    7.5880   35.0330    9.3080 F   0  0  0  0  0  0  0  0  0  0  0  0
    8.3420   35.9970   11.3640 C   0  0  0  0  0  0  0  0  0  0  0  0
    9.0310   37.0080   12.0770 C   0  0  0  0  0  0  0  0  0  0  0  0
    8.6671   33.2200   17.4655 H   0  0  0  0  0  0  0  0  0  0  0  0
   10.2195   32.3881   17.1124 H   0  0  0  0  0  0  0  0  0  0  0  0
   10.1419   34.1827   17.1124 H   0  0  0  0  0  0  0  0  0  0  0  0
    9.2803   32.2115   15.0078 H   0  0  0  0  0  0  0  0  0  0  0  0
    8.2349   33.6522   15.2352 H   0  0  0  0  0  0  0  0  0  0  0  0
    9.7583   35.9481   17.6779 H   0  0  0  0  0  0  0  0  0  0  0  0
   10.4802   37.4418   16.9892 H   0  0  0  0  0  0  0  0  0  0  0  0
    8.6973   37.2235   16.9892 H   0  0  0  0  0  0  0  0  0  0  0  0
    8.2760   35.5163   14.1777 H   0  0  0  0  0  0  0  0  0  0  0  0
    7.9538   37.0368   15.1195 H   0  0  0  0  0  0  0  0  0  0  0  0
   10.3480   40.7403   11.2619 H   0  0  0  0  0  0  0  0  0  0  0  0
   11.4508   40.5061   12.7132 H   0  0  0  0  0  0  0  0  0  0  0  0
   12.9304   38.0681   12.0554 H   0  0  0  0  0  0  0  0  0  0  0  0
   14.8677   37.5692   10.5606 H   0  0  0  0  0  0  0  0  0  0  0  0
   15.2819   38.9741    8.5299 H   0  0  0  0  0  0  0  0  0  0  0  0
   14.6740   40.8143    7.0888 H   0  0  0  0  0  0  0  0  0  0  0  0
   13.1657   42.7317    6.5174 H   0  0  0  0  0  0  0  0  0  0  0  0
   11.2065   43.2617    7.9891 H   0  0  0  0  0  0  0  0  0  0  0  0
   10.7560   41.8875   10.0275 H   0  0  0  0  0  0  0  0  0  0  0  0
   10.0422   38.8771    9.3440 H   0  0  0  0  0  0  0  0  0  0  0  0
    8.7989   37.0684    8.1312 H   0  0  0  0  0  0  0  0  0  0  0  0
    7.8615   35.1790   11.9207 H   0  0  0  0  0  0  0  0  0  0  0  0
  1  2  1  0
  2  3  1  0
  3  4  1  0
  4  5  2  0
  4  6  1  0
  6  7  1  0
  6  8  1  0
  8  9  1  0
  9 10  2  0
 10 11  1  0
 11 12  2  0
 11 13  1  0
 10 14  1  0
 14 15  1  0
 15 16  1  0
 16 17  2  0
 17 18  1  0
 18 19  2  0
 19 20  1  0
 20 21  2  0
 21 22  1  0
 22 23  2  0
 23 24  1  0
 24 25  2  0
 14 26  1  0
 26 27  2  0
 27 28  1  0
 28 29  2  0
 29 30  1  0
 29 31  1  0
 31 32  2  0
 32  9  1  0
 25 16  1  0
 32 26  1  0
 25 20  1  0
  1 33  1  0
  1 34  1  0
  1 35  1  0
  2 36  1  0
  2 37  1  0
  7 38  1  0
  7 39  1  0
  7 40  1  0
  8 41  1  0
  8 42  1  0
 15 43  1  0
 15 44  1  0
 17 45  1  0
 18 46  1  0
 19 47  1  0
 21 48  1  0
 22 49  1  0
 23 50  1  0
 24 51  1  0
 27 52  1  0
 28 53  1  0
 31 54  1  0
M  CHG  1  13  -1
M  END
>  <meeko>  (134) 
{"free_energy": -5.83, "intermolecular_energy": -8.22, "internal_energy": -1.89, "cluster_size": 251, "cluster_id": 26, "rank_in_cluster": 99}

$$$$

     RDKit          3D

 54 57  0  0  0  0  0  0  0  0999 V2000
    9.1820   42.6580   13.7330 C   0  0  0  0  0  0  0  0  0  0  0  0
    9.9870   42.6090   15.0330 C   0  0  0  0  0  0  0  0  0  0  0  0
    9.9350   41.2950   15.5650 O   0  0  0  0  0  0  0  0  0  0  0  0
   11.0190   40.7680   16.1740 C   0  0  0  0  0  0  0  0  0  0  0  0
   11.3490   41.0430   17.3280 O   0  0  0  0  0  0  0  0  0  0  0  0
   11.6820   39.8820   15.3140 N   0  0  0  0  0  0  0  0  0  0  0  0
   11.6180   38.4270   15.4920 C   0  0  0  0  0  0  0  0  0  0  0  0
   12.5050   40.3740   14.2010 C   0  0  0  0  0  0  0  0  0  0  0  0
   12.5000   39.4270   13.0240 C   0  0  0  0  0  0  0  0  0  0  0  0
   11.4320   38.7520   12.4600 C   0  0  0  0  0  0  0  0  0  0  0  0
    9.9810   38.7890   12.8220 C   0  0  0  0  0  0  0  0  0  0  0  0
    9.3540   39.8610   12.6830 O   0  0  0  0  0  0  0  0  0  0  0  0
    9.4120   37.7720   13.2750 O   0  0  0  0  0  1  0  0  0  0  0  0
   11.9130   37.9300   11.4180 N   0  0  0  0  0  0  0  0  0  0  0  0
   11.1530   37.0430   10.5330 C   0  0  0  0  0  0  0  0  0  0  0  0
   10.0180   37.7250    9.7580 C   0  0  0  0  0  0  0  0  0  0  0  0
    9.9340   39.1380    9.6860 C   0  0  0  0  0  0  0  0  0  0  0  0
    8.8960   39.7660    8.9770 C   0  0  0  0  0  0  0  0  0  0  0  0
    7.9210   38.9930    8.3270 C   0  0  0  0  0  0  0  0  0  0  0  0
    7.9810   37.5880    8.3850 C   0  0  0  0  0  0  0  0  0  0  0  0
    6.9930   36.8270    7.7270 C   0  0  0  0  0  0  0  0  0  0  0  0
    7.0330   35.4220    7.7710 C   0  0  0  0  0  0  0  0  0  0  0  0
    8.0640   34.7740    8.4750 C   0  0  0  0  0  0  0  0  0  0  0  0
    9.0540   35.5280    9.1340 C   0  0  0  0  0  0  0  0  0  0  0  0
    9.0280   36.9440    9.1000 C   0  0  0  0  0  0  0  0  0  0  0  0
   13.2910   38.0780   11.3170 C   0  0  0  0  0  0  0  0  0  0  0  0
   14.2400   37.4800   10.4630 C   0  0  0  0  0  0  0  0  0  0  0  0
   15.5970   37.8260   10.5730 C   0  0  0  0  0  0  0  0  0  0  0  0
   16.0000   38.7690   11.5350 C   0  0  0  0  0  0  0  0  0  0  0  0
   17.3070   39.1090   11.6430 F   0  0  0  0  0  0  0  0  0  0  0  0
   15.0470   39.3590   12.3870 C   0  0  0  0  0  0  0  0  0  0  0  0
   13.6730   39.0260   12.3040 C   0  0  0  0  0  0  0  0  0  0  0  0
    8.1094   42.7233   13.9681 H   0  0  0  0  0  0  0  0  0  0  0  0
    9.4835   43.5395   13.1481 H   0  0  0  0  0  0  0  0  0  0  0  0
    9.3743   41.7465   13.1481 H   0  0  0  0  0  0  0  0  0  0  0  0
   11.0328   42.8820   14.8286 H   0  0  0  0  0  0  0  0  0  0  0  0
    9.5612   43.3182   15.7581 H   0  0  0  0  0  0  0  0  0  0  0  0
   11.6075   38.1891   16.5659 H   0  0  0  0  0  0  0  0  0  0  0  0
   10.7020   38.0400   15.0218 H   0  0  0  0  0  0  0  0  0  0  0  0
   12.4965   37.9611   15.0218 H   0  0  0  0  0  0  0  0  0  0  0  0
   12.1120   41.3478   13.8736 H   0  0  0  0  0  0  0  0  0  0  0  0
   13.5412   40.4601   14.5601 H   0  0  0  0  0  0  0  0  0  0  0  0
   11.8515   36.6070    9.8036 H   0  0  0  0  0  0  0  0  0  0  0  0
   10.6775   36.2923   11.1813 H   0  0  0  0  0  0  0  0  0  0  0  0
   10.6928   39.7523   10.1928 H   0  0  0  0  0  0  0  0  0  0  0  0
    8.8474   40.8640    8.9313 H   0  0  0  0  0  0  0  0  0  0  0  0
    7.1093   39.4858    7.7718 H   0  0  0  0  0  0  0  0  0  0  0  0
    6.1872   37.3347    7.1767 H   0  0  0  0  0  0  0  0  0  0  0  0
    6.2605   34.8316    7.2565 H   0  0  0  0  0  0  0  0  0  0  0  0
    8.0970   33.6751    8.5109 H   0  0  0  0  0  0  0  0  0  0  0  0
    9.8565   35.0118    9.6813 H   0  0  0  0  0  0  0  0  0  0  0  0
   13.9184   36.7437    9.7118 H   0  0  0  0  0  0  0  0  0  0  0  0
   16.3411   37.3612    9.9094 H   0  0  0  0  0  0  0  0  0  0  0  0
   15.3772   40.0955   13.1343 H   0  0  0  0  0  0  0  0  0  0  0  0
  1  2  1  0
  2  3  1  0
  3  4  1  0
  4  5  2  0
  4  6  1  0
  6  7  1  0
  6  8  1  0
  8  9  1  0
  9 10  2  0
 10 11  1  0
 11 12  2  0
 11 13  1  0
 10 14  1  0
 14 15  1  0
 15 16  1  0
 16 17  2  0
 17 18  1  0
 18 19  2  0
 19 20  1  0
 20 21  2  0
 21 22  1  0
 22 23  2  0
 23 24  1  0
 24 25  2  0
 14 26  1  0
 26 27  2  0
 27 28  1  0
 28 29  2  0
 29 30  1  0
 29 31  1  0
 31 32  2  0
 32  9  1  0
 25 16  1  0
 32 26  1  0
 25 20  1  0
  1 33  1  0
  1 34  1  0
  1 35  1  0
  2 36  1  0
  2 37  1  0
  7 38  1  0
  7 39  1  0
  7 40  1  0
  8 41  1  0
  8 42  1  0
 15 43  1  0
 15 44  1  0
 17 45  1  0
 18 46  1  0
 19 47  1  0
 21 48  1  0
 22 49  1  0
 23 50  1  0
 24 51  1  0
 27 52  1  0
 28 53  1  0
 31 54  1  0
M  CHG  1  13  -1
M  END
>  <meeko>  (135) 
{"free_energy": -6.14, "intermolecular_energy": -8.53, "internal_energy": -1.62, "cluster_size": 167, "cluster_id": 22, "rank_in_cluster": 28}

$$$$

     RDKit          3D

 54 57  0  0  0  0  0  0  0  0999 V2000
    7.2350   38.6300    7.1790 C   0  0  0  0  0  0  0  0  0  0  0  0
    7.4070   37.1160    7.0350 C   0  0  0  0  0  0  0  0  0  0  0  0
    6.6440   36.4610    8.0350 O   0  0  0  0  0  0  0  0  0  0  0  0
    7.2150   35.5150    8.8100 C   0  0  0  0  0  0  0  0  0  0  0  0
    6.8660   34.3330    8.8040 O   0  0  0  0  0  0  0  0  0  0  0  0
    8.2370   36.0700    9.5910 N   0  0  0  0  0  0  0  0  0  0  0  0
    9.5270   35.3970    9.7810 C   0  0  0  0  0  0  0  0  0  0  0  0
    8.0540   37.3500   10.2870 C   0  0  0  0  0  0  0  0  0  0  0  0
    9.2400   37.7040   11.1540 C   0  0  0  0  0  0  0  0  0  0  0  0
   10.3200   38.5160   10.8560 C   0  0  0  0  0  0  0  0  0  0  0  0
   10.6110   39.2990    9.6140 C   0  0  0  0  0  0  0  0  0  0  0  0
   10.0520   40.4060    9.4590 O   0  0  0  0  0  0  0  0  0  0  0  0
   11.3820   38.8450    8.7410 O   0  0  0  0  0  1  0  0  0  0  0  0
   11.2140   38.5030   11.9480 N   0  0  0  0  0  0  0  0  0  0  0  0
   12.4850   39.2170   12.0930 C   0  0  0  0  0  0  0  0  0  0  0  0
   13.7150   38.4550   11.5820 C   0  0  0  0  0  0  0  0  0  0  0  0
   13.6610   37.7170   10.3730 C   0  0  0  0  0  0  0  0  0  0  0  0
   14.7860   37.0180    9.9020 C   0  0  0  0  0  0  0  0  0  0  0  0
   15.9850   37.0420   10.6320 C   0  0  0  0  0  0  0  0  0  0  0  0
   16.0630   37.7660   11.8360 C   0  0  0  0  0  0  0  0  0  0  0  0
   17.2750   37.7780   12.5570 C   0  0  0  0  0  0  0  0  0  0  0  0
   17.3760   38.4940   13.7630 C   0  0  0  0  0  0  0  0  0  0  0  0
   16.2620   39.2020   14.2510 C   0  0  0  0  0  0  0  0  0  0  0  0
   15.0490   39.1930   13.5370 C   0  0  0  0  0  0  0  0  0  0  0  0
   14.9300   38.4770   12.3200 C   0  0  0  0  0  0  0  0  0  0  0  0
   10.7040   37.6820   12.9460 C   0  0  0  0  0  0  0  0  0  0  0  0
   11.2060   37.3230   14.2140 C   0  0  0  0  0  0  0  0  0  0  0  0
   10.4650   36.4640   15.0430 C   0  0  0  0  0  0  0  0  0  0  0  0
    9.2260   35.9690   14.6030 C   0  0  0  0  0  0  0  0  0  0  0  0
    8.5050   35.1430   15.3980 F   0  0  0  0  0  0  0  0  0  0  0  0
    8.7330   36.3290   13.3340 C   0  0  0  0  0  0  0  0  0  0  0  0
    9.4600   37.1870   12.4730 C   0  0  0  0  0  0  0  0  0  0  0  0
    7.2048   38.8958    8.2460 H   0  0  0  0  0  0  0  0  0  0  0  0
    8.0807   39.1426    6.6973 H   0  0  0  0  0  0  0  0  0  0  0  0
    6.2959   38.9398    6.6973 H   0  0  0  0  0  0  0  0  0  0  0  0
    7.0588   36.7994    6.0407 H   0  0  0  0  0  0  0  0  0  0  0  0
    8.4689   36.8529    7.1499 H   0  0  0  0  0  0  0  0  0  0  0  0
    9.7303   35.2909   10.8568 H   0  0  0  0  0  0  0  0  0  0  0  0
    9.4935   34.4015    9.3143 H   0  0  0  0  0  0  0  0  0  0  0  0
   10.3243   35.9941    9.3143 H   0  0  0  0  0  0  0  0  0  0  0  0
    7.9135   38.1433    9.5381 H   0  0  0  0  0  0  0  0  0  0  0  0
    7.1744   37.2557   10.9408 H   0  0  0  0  0  0  0  0  0  0  0  0
   12.4119   40.1619   11.5347 H   0  0  0  0  0  0  0  0  0  0  0  0
   12.6372   39.3606   13.1729 H   0  0  0  0  0  0  0  0  0  0  0  0
   12.7254   37.6909    9.7951 H   0  0  0  0  0  0  0  0  0  0  0  0
   14.7269   36.4518    8.9608 H   0  0  0  0  0  0  0  0  0  0  0  0
   16.8644   36.4942   10.2623 H   0  0  0  0  0  0  0  0  0  0  0  0
   18.1453   37.2247   12.1742 H   0  0  0  0  0  0  0  0  0  0  0  0
   18.3227   38.5007   14.3231 H   0  0  0  0  0  0  0  0  0  0  0  0
   16.3394   39.7642   15.1933 H   0  0  0  0  0  0  0  0  0  0  0  0
   14.1836   39.7481   13.9282 H   0  0  0  0  0  0  0  0  0  0  0  0
   12.1761   37.7148   14.5535 H   0  0  0  0  0  0  0  0  0  0  0  0
   10.8533   36.1803   16.0323 H   0  0  0  0  0  0  0  0  0  0  0  0
    7.7607   35.9347   13.0037 H   0  0  0  0  0  0  0  0  0  0  0  0
  1  2  1  0
  2  3  1  0
  3  4  1  0
  4  5  2  0
  4  6  1  0
  6  7  1  0
  6  8  1  0
  8  9  1  0
  9 10  2  0
 10 11  1  0
 11 12  2  0
 11 13  1  0
 10 14  1  0
 14 15  1  0
 15 16  1  0
 16 17  2  0
 17 18  1  0
 18 19  2  0
 19 20  1  0
 20 21  2  0
 21 22  1  0
 22 23  2  0
 23 24  1  0
 24 25  2  0
 14 26  1  0
 26 27  2  0
 27 28  1  0
 28 29  2  0
 29 30  1  0
 29 31  1  0
 31 32  2  0
 32  9  1  0
 25 16  1  0
 32 26  1  0
 25 20  1  0
  1 33  1  0
  1 34  1  0
  1 35  1  0
  2 36  1  0
  2 37  1  0
  7 38  1  0
  7 39  1  0
  7 40  1  0
  8 41  1  0
  8 42  1  0
 15 43  1  0
 15 44  1  0
 17 45  1  0
 18 46  1  0
 19 47  1  0
 21 48  1  0
 22 49  1  0
 23 50  1  0
 24 51  1  0
 27 52  1  0
 28 53  1  0
 31 54  1  0
M  CHG  1  13  -1
M  END
>  <meeko>  (136) 
{"free_energy": -6.6, "intermolecular_energy": -8.99, "internal_energy": -1.88, "cluster_size": 124, "cluster_id": 20, "rank_in_cluster": 9}

$$$$

     RDKit          3D

 54 57  0  0  0  0  0  0  0  0999 V2000
   14.5420   40.9840   17.9420 C   0  0  0  0  0  0  0  0  0  0  0  0
   15.5980   40.7470   19.0240 C   0  0  0  0  0  0  0  0  0  0  0  0
   15.4310   39.4450   19.5630 O   0  0  0  0  0  0  0  0  0  0  0  0
   15.6210   39.2300   20.8820 C   0  0  0  0  0  0  0  0  0  0  0  0
   16.1220   40.0620   21.6400 O   0  0  0  0  0  0  0  0  0  0  0  0
   15.1670   37.9540   21.2420 N   0  0  0  0  0  0  0  0  0  0  0  0
   16.0890   36.8530   21.5410 C   0  0  0  0  0  0  0  0  0  0  0  0
   13.7320   37.6470   21.3100 C   0  0  0  0  0  0  0  0  0  0  0  0
   13.0600   37.7490   19.9610 C   0  0  0  0  0  0  0  0  0  0  0  0
   13.2430   36.9580   18.8400 C   0  0  0  0  0  0  0  0  0  0  0  0
   14.1220   35.7620   18.6500 C   0  0  0  0  0  0  0  0  0  0  0  0
   14.4280   35.4210   17.4870 O   0  0  0  0  0  0  0  0  0  0  0  0
   14.5250   35.1050   19.6340 O   0  0  0  0  0  1  0  0  0  0  0  0
   12.4480   37.4660   17.7910 N   0  0  0  0  0  0  0  0  0  0  0  0
   12.3070   36.9540   16.4250 C   0  0  0  0  0  0  0  0  0  0  0  0
   11.5150   35.6450   16.3050 C   0  0  0  0  0  0  0  0  0  0  0  0
   12.1670   34.4300   15.9780 C   0  0  0  0  0  0  0  0  0  0  0  0
   11.4460   33.2290   15.8670 C   0  0  0  0  0  0  0  0  0  0  0  0
   10.0580   33.2210   16.0810 C   0  0  0  0  0  0  0  0  0  0  0  0
    9.3870   34.4150   16.4050 C   0  0  0  0  0  0  0  0  0  0  0  0
    7.9930   34.3890   16.6160 C   0  0  0  0  0  0  0  0  0  0  0  0
    7.3030   35.5700   16.9400 C   0  0  0  0  0  0  0  0  0  0  0  0
    8.0070   36.7820   17.0570 C   0  0  0  0  0  0  0  0  0  0  0  0
    9.3990   36.8150   16.8470 C   0  0  0  0  0  0  0  0  0  0  0  0
   10.1100   35.6340   16.5200 C   0  0  0  0  0  0  0  0  0  0  0  0
   11.7570   38.5840   18.2400 C   0  0  0  0  0  0  0  0  0  0  0  0
   10.8560   39.4550   17.5930 C   0  0  0  0  0  0  0  0  0  0  0  0
   10.2850   40.5250   18.3010 C   0  0  0  0  0  0  0  0  0  0  0  0
   10.6150   40.7200   19.6540 C   0  0  0  0  0  0  0  0  0  0  0  0
   10.0640   41.7480   20.3430 F   0  0  0  0  0  0  0  0  0  0  0  0
   11.5180   39.8490   20.2920 C   0  0  0  0  0  0  0  0  0  0  0  0
   12.1150   38.7660   19.6030 C   0  0  0  0  0  0  0  0  0  0  0  0
   13.5735   41.2014   18.4162 H   0  0  0  0  0  0  0  0  0  0  0  0
   14.8434   41.8368   17.3160 H   0  0  0  0  0  0  0  0  0  0  0  0
   14.4500   40.0842   17.3160 H   0  0  0  0  0  0  0  0  0  0  0  0
   16.6021   40.8368   18.5838 H   0  0  0  0  0  0  0  0  0  0  0  0
   15.4826   41.4947   19.8225 H   0  0  0  0  0  0  0  0  0  0  0  0
   16.1837   36.7399   22.6311 H   0  0  0  0  0  0  0  0  0  0  0  0
   15.6987   35.9201   21.1081 H   0  0  0  0  0  0  0  0  0  0  0  0
   17.0759   37.0734   21.1081 H   0  0  0  0  0  0  0  0  0  0  0  0
   13.6069   36.6227   21.6911 H   0  0  0  0  0  0  0  0  0  0  0  0
   13.2612   38.3839   21.9774 H   0  0  0  0  0  0  0  0  0  0  0  0
   11.7947   37.7198   15.8241 H   0  0  0  0  0  0  0  0  0  0  0  0
   13.3249   36.7327   16.0715 H   0  0  0  0  0  0  0  0  0  0  0  0
   13.2539   34.4270   15.8085 H   0  0  0  0  0  0  0  0  0  0  0  0
   11.9687   32.2952   15.6125 H   0  0  0  0  0  0  0  0  0  0  0  0
    9.4945   32.2802   15.9953 H   0  0  0  0  0  0  0  0  0  0  0  0
    7.4432   33.4405   16.5267 H   0  0  0  0  0  0  0  0  0  0  0  0
    6.2152   35.5464   17.1016 H   0  0  0  0  0  0  0  0  0  0  0  0
    7.4688   37.7065   17.3132 H   0  0  0  0  0  0  0  0  0  0  0  0
    9.9403   37.7683   16.9378 H   0  0  0  0  0  0  0  0  0  0  0  0
   10.6008   39.2964   16.5348 H   0  0  0  0  0  0  0  0  0  0  0  0
    9.5829   41.2074   17.7996 H   0  0  0  0  0  0  0  0  0  0  0  0
   11.7657   40.0137   21.3510 H   0  0  0  0  0  0  0  0  0  0  0  0
  1  2  1  0
  2  3  1  0
  3  4  1  0
  4  5  2  0
  4  6  1  0
  6  7  1  0
  6  8  1  0
  8  9  1  0
  9 10  2  0
 10 11  1  0
 11 12  2  0
 11 13  1  0
 10 14  1  0
 14 15  1  0
 15 16  1  0
 16 17  2  0
 17 18  1  0
 18 19  2  0
 19 20  1  0
 20 21  2  0
 21 22  1  0
 22 23  2  0
 23 24  1  0
 24 25  2  0
 14 26  1  0
 26 27  2  0
 27 28  1  0
 28 29  2  0
 29 30  1  0
 29 31  1  0
 31 32  2  0
 32  9  1  0
 25 16  1  0
 32 26  1  0
 25 20  1  0
  1 33  1  0
  1 34  1  0
  1 35  1  0
  2 36  1  0
  2 37  1  0
  7 38  1  0
  7 39  1  0
  7 40  1  0
  8 41  1  0
  8 42  1  0
 15 43  1  0
 15 44  1  0
 17 45  1  0
 18 46  1  0
 19 47  1  0
 21 48  1  0
 22 49  1  0
 23 50  1  0
 24 51  1  0
 27 52  1  0
 28 53  1  0
 31 54  1  0
M  CHG  1  13  -1
M  END
>  <meeko>  (137) 
{"free_energy": -4.42, "intermolecular_energy": -6.81, "internal_energy": -2.27, "cluster_size": 5, "cluster_id": 259, "rank_in_cluster": 2}

$$$$

     RDKit          3D

 54 57  0  0  0  0  0  0  0  0999 V2000
   15.0700   39.1820   13.9510 C   0  0  0  0  0  0  0  0  0  0  0  0
   15.9060   40.1810   14.7540 C   0  0  0  0  0  0  0  0  0  0  0  0
   15.2720   41.4500   14.7250 O   0  0  0  0  0  0  0  0  0  0  0  0
   14.9050   41.9950   13.5460 C   0  0  0  0  0  0  0  0  0  0  0  0
   15.6470   42.0510   12.5640 O   0  0  0  0  0  0  0  0  0  0  0  0
   13.5870   42.4660   13.6120 N   0  0  0  0  0  0  0  0  0  0  0  0
   13.2620   43.8930   13.5140 C   0  0  0  0  0  0  0  0  0  0  0  0
   12.4590   41.5460   13.8120 C   0  0  0  0  0  0  0  0  0  0  0  0
   11.7620   41.2040   12.5160 C   0  0  0  0  0  0  0  0  0  0  0  0
   10.4220   41.3290   12.1930 C   0  0  0  0  0  0  0  0  0  0  0  0
    9.2900   41.8660   13.0100 C   0  0  0  0  0  0  0  0  0  0  0  0
    9.2160   41.5480   14.2160 O   0  0  0  0  0  0  0  0  0  0  0  0
    8.4240   42.6040   12.4910 O   0  0  0  0  0  1  0  0  0  0  0  0
   10.2200   40.8240   10.8900 N   0  0  0  0  0  0  0  0  0  0  0  0
    8.9730   40.7570   10.1230 C   0  0  0  0  0  0  0  0  0  0  0  0
    8.5720   39.3490    9.6660 C   0  0  0  0  0  0  0  0  0  0  0  0
    8.0460   39.1290    8.3680 C   0  0  0  0  0  0  0  0  0  0  0  0
    7.6780   37.8400    7.9450 C   0  0  0  0  0  0  0  0  0  0  0  0
    7.8260   36.7470    8.8140 C   0  0  0  0  0  0  0  0  0  0  0  0
    8.3440   36.9390   10.1080 C   0  0  0  0  0  0  0  0  0  0  0  0
    8.4860   35.8300   10.9670 C   0  0  0  0  0  0  0  0  0  0  0  0
    9.0010   35.9990   12.2650 C   0  0  0  0  0  0  0  0  0  0  0  0
    9.3760   37.2800   12.7070 C   0  0  0  0  0  0  0  0  0  0  0  0
    9.2370   38.3920   11.8540 C   0  0  0  0  0  0  0  0  0  0  0  0
    8.7200   38.2400   10.5440 C   0  0  0  0  0  0  0  0  0  0  0  0
   11.4320   40.3760   10.3800 C   0  0  0  0  0  0  0  0  0  0  0  0
   11.7690   39.7800    9.1480 C   0  0  0  0  0  0  0  0  0  0  0  0
   13.1020   39.4240    8.8830 C   0  0  0  0  0  0  0  0  0  0  0  0
   14.0930   39.6670    9.8500 C   0  0  0  0  0  0  0  0  0  0  0  0
   15.3800   39.3300    9.6000 F   0  0  0  0  0  0  0  0  0  0  0  0
   13.7480   40.2590   11.0800 C   0  0  0  0  0  0  0  0  0  0  0  0
   12.4120   40.6220   11.3780 C   0  0  0  0  0  0  0  0  0  0  0  0
   14.5204   38.5253   14.6414 H   0  0  0  0  0  0  0  0  0  0  0  0
   14.3555   39.7277   13.3172 H   0  0  0  0  0  0  0  0  0  0  0  0
   15.7331   38.5749   13.3172 H   0  0  0  0  0  0  0  0  0  0  0  0
   15.9914   39.8362   15.7951 H   0  0  0  0  0  0  0  0  0  0  0  0
   16.9109   40.2599   14.3136 H   0  0  0  0  0  0  0  0  0  0  0  0
   13.1654   44.3173   14.5243 H   0  0  0  0  0  0  0  0  0  0  0  0
   14.0642   44.4154   12.9721 H   0  0  0  0  0  0  0  0  0  0  0  0
   12.3127   44.0165   12.9721 H   0  0  0  0  0  0  0  0  0  0  0  0
   12.8357   40.6180   14.2668 H   0  0  0  0  0  0  0  0  0  0  0  0
   11.7287   42.0457   14.4654 H   0  0  0  0  0  0  0  0  0  0  0  0
    8.1632   41.1560   10.7515 H   0  0  0  0  0  0  0  0  0  0  0  0
    9.1417   41.3427    9.2073 H   0  0  0  0  0  0  0  0  0  0  0  0
    7.9240   39.9798    7.6816 H   0  0  0  0  0  0  0  0  0  0  0  0
    7.2741   37.6875    6.9333 H   0  0  0  0  0  0  0  0  0  0  0  0
    7.5365   35.7389    8.4825 H   0  0  0  0  0  0  0  0  0  0  0  0
    8.1927   34.8280   10.6205 H   0  0  0  0  0  0  0  0  0  0  0  0
    9.1101   35.1314   12.9324 H   0  0  0  0  0  0  0  0  0  0  0  0
    9.7790   37.4140   13.7217 H   0  0  0  0  0  0  0  0  0  0  0  0
    9.5333   39.3900   12.2091 H   0  0  0  0  0  0  0  0  0  0  0  0
   10.9892   39.5938    8.3948 H   0  0  0  0  0  0  0  0  0  0  0  0
   13.3690   38.9573    7.9234 H   0  0  0  0  0  0  0  0  0  0  0  0
   14.5343   40.4438   11.8267 H   0  0  0  0  0  0  0  0  0  0  0  0
  1  2  1  0
  2  3  1  0
  3  4  1  0
  4  5  2  0
  4  6  1  0
  6  7  1  0
  6  8  1  0
  8  9  1  0
  9 10  2  0
 10 11  1  0
 11 12  2  0
 11 13  1  0
 10 14  1  0
 14 15  1  0
 15 16  1  0
 16 17  2  0
 17 18  1  0
 18 19  2  0
 19 20  1  0
 20 21  2  0
 21 22  1  0
 22 23  2  0
 23 24  1  0
 24 25  2  0
 14 26  1  0
 26 27  2  0
 27 28  1  0
 28 29  2  0
 29 30  1  0
 29 31  1  0
 31 32  2  0
 32  9  1  0
 25 16  1  0
 32 26  1  0
 25 20  1  0
  1 33  1  0
  1 34  1  0
  1 35  1  0
  2 36  1  0
  2 37  1  0
  7 38  1  0
  7 39  1  0
  7 40  1  0
  8 41  1  0
  8 42  1  0
 15 43  1  0
 15 44  1  0
 17 45  1  0
 18 46  1  0
 19 47  1  0
 21 48  1  0
 22 49  1  0
 23 50  1  0
 24 51  1  0
 27 52  1  0
 28 53  1  0
 31 54  1  0
M  CHG  1  13  -1
M  END
>  <meeko>  (138) 
{"free_energy": -5.15, "intermolecular_energy": -7.54, "internal_energy": -2.19, "cluster_size": 167, "cluster_id": 22, "rank_in_cluster": 127}

$$$$

     RDKit          3D

 54 57  0  0  0  0  0  0  0  0999 V2000
   19.9910   41.3760    7.9440 C   0  0  0  0  0  0  0  0  0  0  0  0
   19.4150   41.3650    9.3620 C   0  0  0  0  0  0  0  0  0  0  0  0
   18.4730   40.3100    9.4740 O   0  0  0  0  0  0  0  0  0  0  0  0
   17.6470   40.2520   10.5410 C   0  0  0  0  0  0  0  0  0  0  0  0
   17.1330   41.2470   11.0540 O   0  0  0  0  0  0  0  0  0  0  0  0
   17.4680   38.9250   10.9520 N   0  0  0  0  0  0  0  0  0  0  0  0
   18.4790   38.2090   11.7380 C   0  0  0  0  0  0  0  0  0  0  0  0
   16.2610   38.1710   10.5890 C   0  0  0  0  0  0  0  0  0  0  0  0
   15.0360   39.0520   10.5160 C   0  0  0  0  0  0  0  0  0  0  0  0
   14.0570   39.2560   11.4720 C   0  0  0  0  0  0  0  0  0  0  0  0
   13.9430   38.6970   12.8550 C   0  0  0  0  0  0  0  0  0  0  0  0
   14.9910   38.4650   13.4960 O   0  0  0  0  0  0  0  0  0  0  0  0
   12.8230   38.4500   13.3520 O   0  0  0  0  0  1  0  0  0  0  0  0
   13.0710   40.1130   10.9370 N   0  0  0  0  0  0  0  0  0  0  0  0
   11.8550   40.6160   11.5820 C   0  0  0  0  0  0  0  0  0  0  0  0
   10.5480   40.2520   10.8660 C   0  0  0  0  0  0  0  0  0  0  0  0
    9.6050   41.2530   10.5220 C   0  0  0  0  0  0  0  0  0  0  0  0
    8.4060   40.9240    9.8660 C   0  0  0  0  0  0  0  0  0  0  0  0
    8.1270   39.5860    9.5430 C   0  0  0  0  0  0  0  0  0  0  0  0
    9.0460   38.5740    9.8760 C   0  0  0  0  0  0  0  0  0  0  0  0
    8.7490   37.2360    9.5440 C   0  0  0  0  0  0  0  0  0  0  0  0
    9.6520   36.2080    9.8670 C   0  0  0  0  0  0  0  0  0  0  0  0
   10.8570   36.5160   10.5220 C   0  0  0  0  0  0  0  0  0  0  0  0
   11.1600   37.8500   10.8570 C   0  0  0  0  0  0  0  0  0  0  0  0
   10.2610   38.8980   10.5390 C   0  0  0  0  0  0  0  0  0  0  0  0
   13.4200   40.4580    9.6380 C   0  0  0  0  0  0  0  0  0  0  0  0
   12.7800   41.2650    8.6760 C   0  0  0  0  0  0  0  0  0  0  0  0
   13.3700   41.4560    7.4150 C   0  0  0  0  0  0  0  0  0  0  0  0
   14.6000   40.8410    7.1220 C   0  0  0  0  0  0  0  0  0  0  0  0
   15.1760   41.0230    5.9110 F   0  0  0  0  0  0  0  0  0  0  0  0
   15.2320   40.0330    8.0870 C   0  0  0  0  0  0  0  0  0  0  0  0
   14.6570   39.8160    9.3630 C   0  0  0  0  0  0  0  0  0  0  0  0
   21.0896   41.3970    7.9947 H   0  0  0  0  0  0  0  0  0  0  0  0
   19.6658   40.4715    7.4091 H   0  0  0  0  0  0  0  0  0  0  0  0
   19.6315   42.2674    7.4091 H   0  0  0  0  0  0  0  0  0  0  0  0
   20.2271   41.2119   10.0880 H   0  0  0  0  0  0  0  0  0  0  0  0
   18.9205   42.3258    9.5678 H   0  0  0  0  0  0  0  0  0  0  0  0
   18.2783   38.3512   12.8101 H   0  0  0  0  0  0  0  0  0  0  0  0
   18.4393   37.1366   11.4966 H   0  0  0  0  0  0  0  0  0  0  0  0
   19.4775   38.6025   11.4966 H   0  0  0  0  0  0  0  0  0  0  0  0
   16.4188   37.7021    9.6065 H   0  0  0  0  0  0  0  0  0  0  0  0
   16.0873   37.4166   11.3705 H   0  0  0  0  0  0  0  0  0  0  0  0
   11.8129   40.2039   12.6010 H   0  0  0  0  0  0  0  0  0  0  0  0
   11.9245   41.7136   11.5595 H   0  0  0  0  0  0  0  0  0  0  0  0
    9.8147   42.3034   10.7723 H   0  0  0  0  0  0  0  0  0  0  0  0
    7.6865   41.7143    9.6057 H   0  0  0  0  0  0  0  0  0  0  0  0
    7.1890   39.3290    9.0291 H   0  0  0  0  0  0  0  0  0  0  0  0
    7.8066   36.9956    9.0300 H   0  0  0  0  0  0  0  0  0  0  0  0
    9.4162   35.1653    9.6078 H   0  0  0  0  0  0  0  0  0  0  0  0
   11.5653   35.7129   10.7736 H   0  0  0  0  0  0  0  0  0  0  0  0
   12.1047   38.0808   11.3710 H   0  0  0  0  0  0  0  0  0  0  0  0
   11.8189   41.7452    8.9122 H   0  0  0  0  0  0  0  0  0  0  0  0
   12.8721   42.0834    6.6610 H   0  0  0  0  0  0  0  0  0  0  0  0
   16.1946   39.5594    7.8440 H   0  0  0  0  0  0  0  0  0  0  0  0
  1  2  1  0
  2  3  1  0
  3  4  1  0
  4  5  2  0
  4  6  1  0
  6  7  1  0
  6  8  1  0
  8  9  1  0
  9 10  2  0
 10 11  1  0
 11 12  2  0
 11 13  1  0
 10 14  1  0
 14 15  1  0
 15 16  1  0
 16 17  2  0
 17 18  1  0
 18 19  2  0
 19 20  1  0
 20 21  2  0
 21 22  1  0
 22 23  2  0
 23 24  1  0
 24 25  2  0
 14 26  1  0
 26 27  2  0
 27 28  1  0
 28 29  2  0
 29 30  1  0
 29 31  1  0
 31 32  2  0
 32  9  1  0
 25 16  1  0
 32 26  1  0
 25 20  1  0
  1 33  1  0
  1 34  1  0
  1 35  1  0
  2 36  1  0
  2 37  1  0
  7 38  1  0
  7 39  1  0
  7 40  1  0
  8 41  1  0
  8 42  1  0
 15 43  1  0
 15 44  1  0
 17 45  1  0
 18 46  1  0
 19 47  1  0
 21 48  1  0
 22 49  1  0
 23 50  1  0
 24 51  1  0
 27 52  1  0
 28 53  1  0
 31 54  1  0
M  CHG  1  13  -1
M  END
>  <meeko>  (139) 
{"free_energy": -5.05, "intermolecular_energy": -7.44, "internal_energy": -2.19, "cluster_size": 49, "cluster_id": 55, "rank_in_cluster": 19}

$$$$

     RDKit          3D

 54 57  0  0  0  0  0  0  0  0999 V2000
    4.0920   37.5060   17.1040 C   0  0  0  0  0  0  0  0  0  0  0  0
    4.7190   36.6080   18.1740 C   0  0  0  0  0  0  0  0  0  0  0  0
    5.5010   35.6070   17.5430 O   0  0  0  0  0  0  0  0  0  0  0  0
    6.7780   35.4030   17.9300 C   0  0  0  0  0  0  0  0  0  0  0  0
    7.0870   34.7800   18.9480 O   0  0  0  0  0  0  0  0  0  0  0  0
    7.6680   35.9850   17.0180 N   0  0  0  0  0  0  0  0  0  0  0  0
    7.2250   36.9460   16.0020 C   0  0  0  0  0  0  0  0  0  0  0  0
    9.0950   35.6370   17.0170 C   0  0  0  0  0  0  0  0  0  0  0  0
    9.8240   36.2170   15.8280 C   0  0  0  0  0  0  0  0  0  0  0  0
    9.6380   35.9520   14.4830 C   0  0  0  0  0  0  0  0  0  0  0  0
    8.6470   35.0500   13.8170 C   0  0  0  0  0  0  0  0  0  0  0  0
    8.1320   35.4160   12.7380 O   0  0  0  0  0  0  0  0  0  0  0  0
    8.3260   33.9610   14.3390 O   0  0  0  0  0  1  0  0  0  0  0  0
   10.5920   36.6790   13.7400 N   0  0  0  0  0  0  0  0  0  0  0  0
   10.7740   36.7230   12.2860 C   0  0  0  0  0  0  0  0  0  0  0  0
    9.8770   37.7300   11.5540 C   0  0  0  0  0  0  0  0  0  0  0  0
    9.8290   39.0880   11.9590 C   0  0  0  0  0  0  0  0  0  0  0  0
    9.0090   40.0140   11.2920 C   0  0  0  0  0  0  0  0  0  0  0  0
    8.2190   39.5990   10.2070 C   0  0  0  0  0  0  0  0  0  0  0  0
    8.2480   38.2550    9.7870 C   0  0  0  0  0  0  0  0  0  0  0  0
    7.4480   37.8560    8.6960 C   0  0  0  0  0  0  0  0  0  0  0  0
    7.4610   36.5190    8.2600 C   0  0  0  0  0  0  0  0  0  0  0  0
    8.2750   35.5780    8.9140 C   0  0  0  0  0  0  0  0  0  0  0  0
    9.0760   35.9700   10.0040 C   0  0  0  0  0  0  0  0  0  0  0  0
    9.0750   37.3130   10.4570 C   0  0  0  0  0  0  0  0  0  0  0  0
   11.3900   37.4100   14.6110 C   0  0  0  0  0  0  0  0  0  0  0  0
   12.4810   38.2740   14.3850 C   0  0  0  0  0  0  0  0  0  0  0  0
   13.1140   38.9020   15.4700 C   0  0  0  0  0  0  0  0  0  0  0  0
   12.6540   38.6660   16.7770 C   0  0  0  0  0  0  0  0  0  0  0  0
   13.2570   39.2720   17.8270 F   0  0  0  0  0  0  0  0  0  0  0  0
   11.5660   37.7990   16.9950 C   0  0  0  0  0  0  0  0  0  0  0  0
   10.9120   37.1460   15.9220 C   0  0  0  0  0  0  0  0  0  0  0  0
    3.5270   38.3153   17.5896 H   0  0  0  0  0  0  0  0  0  0  0  0
    4.8857   37.9381   16.4769 H   0  0  0  0  0  0  0  0  0  0  0  0
    3.4129   36.9098   16.4769 H   0  0  0  0  0  0  0  0  0  0  0  0
    5.3584   37.2131   18.8336 H   0  0  0  0  0  0  0  0  0  0  0  0
    3.9253   36.1352   18.7711 H   0  0  0  0  0  0  0  0  0  0  0  0
    6.8136   37.8385   16.4962 H   0  0  0  0  0  0  0  0  0  0  0  0
    8.0803   37.2360   15.3740 H   0  0  0  0  0  0  0  0  0  0  0  0
    6.4490   36.4841   15.3740 H   0  0  0  0  0  0  0  0  0  0  0  0
    9.5547   36.0251   17.9379 H   0  0  0  0  0  0  0  0  0  0  0  0
    9.1749   34.5414   16.9599 H   0  0  0  0  0  0  0  0  0  0  0  0
   11.8221   36.9861   12.0804 H   0  0  0  0  0  0  0  0  0  0  0  0
   10.4935   35.7283   11.9092 H   0  0  0  0  0  0  0  0  0  0  0  0
   10.4431   39.4218   12.8084 H   0  0  0  0  0  0  0  0  0  0  0  0
    8.9857   41.0639   11.6195 H   0  0  0  0  0  0  0  0  0  0  0  0
    7.5774   40.3242    9.6851 H   0  0  0  0  0  0  0  0  0  0  0  0
    6.8117   38.5932    8.1844 H   0  0  0  0  0  0  0  0  0  0  0  0
    6.8357   36.2104    7.4093 H   0  0  0  0  0  0  0  0  0  0  0  0
    8.2864   34.5321    8.5734 H   0  0  0  0  0  0  0  0  0  0  0  0
    9.7092   35.2259   10.5092 H   0  0  0  0  0  0  0  0  0  0  0  0
   12.8360   38.4560   13.3599 H   0  0  0  0  0  0  0  0  0  0  0  0
   13.9663   39.5758   15.2977 H   0  0  0  0  0  0  0  0  0  0  0  0
   11.2158   37.6248   18.0231 H   0  0  0  0  0  0  0  0  0  0  0  0
  1  2  1  0
  2  3  1  0
  3  4  1  0
  4  5  2  0
  4  6  1  0
  6  7  1  0
  6  8  1  0
  8  9  1  0
  9 10  2  0
 10 11  1  0
 11 12  2  0
 11 13  1  0
 10 14  1  0
 14 15  1  0
 15 16  1  0
 16 17  2  0
 17 18  1  0
 18 19  2  0
 19 20  1  0
 20 21  2  0
 21 22  1  0
 22 23  2  0
 23 24  1  0
 24 25  2  0
 14 26  1  0
 26 27  2  0
 27 28  1  0
 28 29  2  0
 29 30  1  0
 29 31  1  0
 31 32  2  0
 32  9  1  0
 25 16  1  0
 32 26  1  0
 25 20  1  0
  1 33  1  0
  1 34  1  0
  1 35  1  0
  2 36  1  0
  2 37  1  0
  7 38  1  0
  7 39  1  0
  7 40  1  0
  8 41  1  0
  8 42  1  0
 15 43  1  0
 15 44  1  0
 17 45  1  0
 18 46  1  0
 19 47  1  0
 21 48  1  0
 22 49  1  0
 23 50  1  0
 24 51  1  0
 27 52  1  0
 28 53  1  0
 31 54  1  0
M  CHG  1  13  -1
M  END
>  <meeko>  (140) 
{"free_energy": -7.56, "intermolecular_energy": -9.95, "internal_energy": -1.57, "cluster_size": 163, "cluster_id": 4, "rank_in_cluster": 9}

$$$$

     RDKit          3D

 54 57  0  0  0  0  0  0  0  0999 V2000
   13.4360   45.1020    9.8350 C   0  0  0  0  0  0  0  0  0  0  0  0
   13.1180   44.2780    8.5840 C   0  0  0  0  0  0  0  0  0  0  0  0
   13.8850   43.0850    8.6040 O   0  0  0  0  0  0  0  0  0  0  0  0
   13.3320   41.9190    8.2080 C   0  0  0  0  0  0  0  0  0  0  0  0
   12.6360   41.8080    7.1980 O   0  0  0  0  0  0  0  0  0  0  0  0
   13.6700   40.8890    9.0950 N   0  0  0  0  0  0  0  0  0  0  0  0
   14.2650   39.6280    8.6370 C   0  0  0  0  0  0  0  0  0  0  0  0
   13.4160   41.0110   10.5370 C   0  0  0  0  0  0  0  0  0  0  0  0
   11.9710   40.7470   10.8870 C   0  0  0  0  0  0  0  0  0  0  0  0
   11.2040   39.6270   10.6190 C   0  0  0  0  0  0  0  0  0  0  0  0
   11.5870   38.3490    9.9410 C   0  0  0  0  0  0  0  0  0  0  0  0
   11.2250   38.1640    8.7590 O   0  0  0  0  0  0  0  0  0  0  0  0
   12.2410   37.4750   10.5520 O   0  0  0  0  0  1  0  0  0  0  0  0
    9.8890   39.8540   11.0790 N   0  0  0  0  0  0  0  0  0  0  0  0
    8.7360   38.9520   11.0220 C   0  0  0  0  0  0  0  0  0  0  0  0
    8.2910   38.5620    9.6060 C   0  0  0  0  0  0  0  0  0  0  0  0
    7.7950   39.5390    8.7060 C   0  0  0  0  0  0  0  0  0  0  0  0
    7.3870   39.1860    7.4080 C   0  0  0  0  0  0  0  0  0  0  0  0
    7.4650   37.8490    6.9860 C   0  0  0  0  0  0  0  0  0  0  0  0
    7.9530   36.8610    7.8620 C   0  0  0  0  0  0  0  0  0  0  0  0
    8.0240   35.5230    7.4210 C   0  0  0  0  0  0  0  0  0  0  0  0
    8.5070   34.5190    8.2790 C   0  0  0  0  0  0  0  0  0  0  0  0
    8.9220   34.8520    9.5810 C   0  0  0  0  0  0  0  0  0  0  0  0
    8.8530   36.1850   10.0270 C   0  0  0  0  0  0  0  0  0  0  0  0
    8.3680   37.2090    9.1760 C   0  0  0  0  0  0  0  0  0  0  0  0
    9.8150   41.1220   11.6420 C   0  0  0  0  0  0  0  0  0  0  0  0
    8.7430   41.8290   12.2240 C   0  0  0  0  0  0  0  0  0  0  0  0
    8.9520   43.1220   12.7340 C   0  0  0  0  0  0  0  0  0  0  0  0
   10.2310   43.7010   12.6620 C   0  0  0  0  0  0  0  0  0  0  0  0
   10.4390   44.9450   13.1550 F   0  0  0  0  0  0  0  0  0  0  0  0
   11.2950   42.9890   12.0750 C   0  0  0  0  0  0  0  0  0  0  0  0
   11.1140   41.6880   11.5470 C   0  0  0  0  0  0  0  0  0  0  0  0
   13.2071   44.5089   10.7327 H   0  0  0  0  0  0  0  0  0  0  0  0
   14.5026   45.3711    9.8355 H   0  0  0  0  0  0  0  0  0  0  0  0
   12.8267   46.0179    9.8355 H   0  0  0  0  0  0  0  0  0  0  0  0
   12.0471   44.0268    8.5713 H   0  0  0  0  0  0  0  0  0  0  0  0
   13.3650   44.8612    7.6846 H   0  0  0  0  0  0  0  0  0  0  0  0
   14.5518   39.0203    9.5079 H   0  0  0  0  0  0  0  0  0  0  0  0
   13.5323   39.0760    8.0299 H   0  0  0  0  0  0  0  0  0  0  0  0
   15.1569   39.8426    8.0299 H   0  0  0  0  0  0  0  0  0  0  0  0
   14.0477   40.2855   11.0704 H   0  0  0  0  0  0  0  0  0  0  0  0
   13.6520   42.0433   10.8349 H   0  0  0  0  0  0  0  0  0  0  0  0
    8.9954   38.0310   11.5646 H   0  0  0  0  0  0  0  0  0  0  0  0
    7.8936   39.4988   11.4708 H   0  0  0  0  0  0  0  0  0  0  0  0
    7.7285   40.5886    9.0283 H   0  0  0  0  0  0  0  0  0  0  0  0
    7.0064   39.9575    6.7225 H   0  0  0  0  0  0  0  0  0  0  0  0
    7.1446   37.5735    5.9704 H   0  0  0  0  0  0  0  0  0  0  0  0
    7.7003   35.2640    6.4021 H   0  0  0  0  0  0  0  0  0  0  0  0
    8.5601   33.4762    7.9329 H   0  0  0  0  0  0  0  0  0  0  0  0
    9.3017   34.0681   10.2528 H   0  0  0  0  0  0  0  0  0  0  0  0
    9.1791   36.4348   11.0474 H   0  0  0  0  0  0  0  0  0  0  0  0
    7.7450   41.3696   12.2788 H   0  0  0  0  0  0  0  0  0  0  0  0
    8.1185   43.6784   13.1875 H   0  0  0  0  0  0  0  0  0  0  0  0
   12.2903   43.4549   12.0256 H   0  0  0  0  0  0  0  0  0  0  0  0
  1  2  1  0
  2  3  1  0
  3  4  1  0
  4  5  2  0
  4  6  1  0
  6  7  1  0
  6  8  1  0
  8  9  1  0
  9 10  2  0
 10 11  1  0
 11 12  2  0
 11 13  1  0
 10 14  1  0
 14 15  1  0
 15 16  1  0
 16 17  2  0
 17 18  1  0
 18 19  2  0
 19 20  1  0
 20 21  2  0
 21 22  1  0
 22 23  2  0
 23 24  1  0
 24 25  2  0
 14 26  1  0
 26 27  2  0
 27 28  1  0
 28 29  2  0
 29 30  1  0
 29 31  1  0
 31 32  2  0
 32  9  1  0
 25 16  1  0
 32 26  1  0
 25 20  1  0
  1 33  1  0
  1 34  1  0
  1 35  1  0
  2 36  1  0
  2 37  1  0
  7 38  1  0
  7 39  1  0
  7 40  1  0
  8 41  1  0
  8 42  1  0
 15 43  1  0
 15 44  1  0
 17 45  1  0
 18 46  1  0
 19 47  1  0
 21 48  1  0
 22 49  1  0
 23 50  1  0
 24 51  1  0
 27 52  1  0
 28 53  1  0
 31 54  1  0
M  CHG  1  13  -1
M  END
>  <meeko>  (141) 
{"free_energy": -5.94, "intermolecular_energy": -8.33, "internal_energy": -2.21, "cluster_size": 74, "cluster_id": 18, "rank_in_cluster": 22}

$$$$

     RDKit          3D

 54 57  0  0  0  0  0  0  0  0999 V2000
    4.8950   43.5900   14.3430 C   0  0  0  0  0  0  0  0  0  0  0  0
    5.8170   44.0220   15.4860 C   0  0  0  0  0  0  0  0  0  0  0  0
    7.0670   44.4240   14.9510 O   0  0  0  0  0  0  0  0  0  0  0  0
    8.1640   43.6630   15.1490 C   0  0  0  0  0  0  0  0  0  0  0  0
    8.3430   42.9810   16.1600 O   0  0  0  0  0  0  0  0  0  0  0  0
    9.0360   43.7620   14.0570 N   0  0  0  0  0  0  0  0  0  0  0  0
    8.6600   44.4560   12.8190 C   0  0  0  0  0  0  0  0  0  0  0  0
   10.3690   43.1460   14.0870 C   0  0  0  0  0  0  0  0  0  0  0  0
   10.8560   42.7680   12.7080 C   0  0  0  0  0  0  0  0  0  0  0  0
   10.3330   41.8340   11.8300 C   0  0  0  0  0  0  0  0  0  0  0  0
    9.1270   40.9610   11.9740 C   0  0  0  0  0  0  0  0  0  0  0  0
    8.0070   41.4310   11.6800 O   0  0  0  0  0  0  0  0  0  0  0  0
    9.2360   39.7890   12.3970 O   0  0  0  0  0  1  0  0  0  0  0  0
   11.1570   41.7760   10.6860 N   0  0  0  0  0  0  0  0  0  0  0  0
   10.9960   40.9430    9.4900 C   0  0  0  0  0  0  0  0  0  0  0  0
   10.9680   39.4320    9.7560 C   0  0  0  0  0  0  0  0  0  0  0  0
   12.0650   38.7830   10.3770 C   0  0  0  0  0  0  0  0  0  0  0  0
   12.0430   37.3990   10.6220 C   0  0  0  0  0  0  0  0  0  0  0  0
   10.9240   36.6370   10.2490 C   0  0  0  0  0  0  0  0  0  0  0  0
    9.8230   37.2580    9.6290 C   0  0  0  0  0  0  0  0  0  0  0  0
    8.7080   36.4770    9.2610 C   0  0  0  0  0  0  0  0  0  0  0  0
    7.5970   37.0760    8.6400 C   0  0  0  0  0  0  0  0  0  0  0  0
    7.5990   38.4590    8.3870 C   0  0  0  0  0  0  0  0  0  0  0  0
    8.7100   39.2440    8.7520 C   0  0  0  0  0  0  0  0  0  0  0  0
    9.8370   38.6580    9.3780 C   0  0  0  0  0  0  0  0  0  0  0  0
   12.2070   42.6730   10.8310 C   0  0  0  0  0  0  0  0  0  0  0  0
   13.2980   42.9860    9.9940 C   0  0  0  0  0  0  0  0  0  0  0  0
   14.2280   43.9610   10.3910 C   0  0  0  0  0  0  0  0  0  0  0  0
   14.0640   44.6200   11.6220 C   0  0  0  0  0  0  0  0  0  0  0  0
   14.9550   45.5630   12.0090 F   0  0  0  0  0  0  0  0  0  0  0  0
   12.9750   44.2980   12.4540 C   0  0  0  0  0  0  0  0  0  0  0  0
   12.0250   43.3160   12.0840 C   0  0  0  0  0  0  0  0  0  0  0  0
    3.9729   43.1580   14.7590 H   0  0  0  0  0  0  0  0  0  0  0  0
    4.6437   44.4641   13.7243 H   0  0  0  0  0  0  0  0  0  0  0  0
    5.4058   42.8375   13.7243 H   0  0  0  0  0  0  0  0  0  0  0  0
    5.3612   44.8636   16.0281 H   0  0  0  0  0  0  0  0  0  0  0  0
    5.9653   43.1806   16.1789 H   0  0  0  0  0  0  0  0  0  0  0  0
    8.1495   45.3982   13.0674 H   0  0  0  0  0  0  0  0  0  0  0  0
    9.5641   44.6727   12.2311 H   0  0  0  0  0  0  0  0  0  0  0  0
    7.9847   43.8170   12.2311 H   0  0  0  0  0  0  0  0  0  0  0  0
   11.0790   43.8601   14.5297 H   0  0  0  0  0  0  0  0  0  0  0  0
   10.3012   42.2250   14.6846 H   0  0  0  0  0  0  0  0  0  0  0  0
   10.0497   41.2222    9.0036 H   0  0  0  0  0  0  0  0  0  0  0  0
   11.8793   41.1300    8.8617 H   0  0  0  0  0  0  0  0  0  0  0  0
   12.9465   39.3714   10.6715 H   0  0  0  0  0  0  0  0  0  0  0  0
   12.9027   36.9127   11.1061 H   0  0  0  0  0  0  0  0  0  0  0  0
   10.9076   35.5541   10.4414 H   0  0  0  0  0  0  0  0  0  0  0  0
    8.7070   35.3952    9.4603 H   0  0  0  0  0  0  0  0  0  0  0  0
    6.7291   36.4641    8.3531 H   0  0  0  0  0  0  0  0  0  0  0  0
    6.7305   38.9293    7.9027 H   0  0  0  0  0  0  0  0  0  0  0  0
    8.7022   40.3250    8.5484 H   0  0  0  0  0  0  0  0  0  0  0  0
   13.4205   42.4674    9.0317 H   0  0  0  0  0  0  0  0  0  0  0  0
   15.0808   44.2078    9.7416 H   0  0  0  0  0  0  0  0  0  0  0  0
   12.8596   44.8219   13.4143 H   0  0  0  0  0  0  0  0  0  0  0  0
  1  2  1  0
  2  3  1  0
  3  4  1  0
  4  5  2  0
  4  6  1  0
  6  7  1  0
  6  8  1  0
  8  9  1  0
  9 10  2  0
 10 11  1  0
 11 12  2  0
 11 13  1  0
 10 14  1  0
 14 15  1  0
 15 16  1  0
 16 17  2  0
 17 18  1  0
 18 19  2  0
 19 20  1  0
 20 21  2  0
 21 22  1  0
 22 23  2  0
 23 24  1  0
 24 25  2  0
 14 26  1  0
 26 27  2  0
 27 28  1  0
 28 29  2  0
 29 30  1  0
 29 31  1  0
 31 32  2  0
 32  9  1  0
 25 16  1  0
 32 26  1  0
 25 20  1  0
  1 33  1  0
  1 34  1  0
  1 35  1  0
  2 36  1  0
  2 37  1  0
  7 38  1  0
  7 39  1  0
  7 40  1  0
  8 41  1  0
  8 42  1  0
 15 43  1  0
 15 44  1  0
 17 45  1  0
 18 46  1  0
 19 47  1  0
 21 48  1  0
 22 49  1  0
 23 50  1  0
 24 51  1  0
 27 52  1  0
 28 53  1  0
 31 54  1  0
M  CHG  1  13  -1
M  END
>  <meeko>  (142) 
{"free_energy": -5.76, "intermolecular_energy": -8.15, "internal_energy": -1.89, "cluster_size": 20, "cluster_id": 62, "rank_in_cluster": 4}

$$$$

     RDKit          3D

 54 57  0  0  0  0  0  0  0  0999 V2000
   13.0720   36.1190   16.9450 C   0  0  0  0  0  0  0  0  0  0  0  0
   13.8480   37.4270   16.7710 C   0  0  0  0  0  0  0  0  0  0  0  0
   12.9540   38.4500   16.3630 O   0  0  0  0  0  0  0  0  0  0  0  0
   12.5780   39.4080   17.2360 C   0  0  0  0  0  0  0  0  0  0  0  0
   13.0120   40.5610   17.2050 O   0  0  0  0  0  0  0  0  0  0  0  0
   11.6430   38.9030   18.1490 N   0  0  0  0  0  0  0  0  0  0  0  0
   11.9830   38.6460   19.5530 C   0  0  0  0  0  0  0  0  0  0  0  0
   10.2730   38.5760   17.7330 C   0  0  0  0  0  0  0  0  0  0  0  0
   10.0930   38.6640   16.2360 C   0  0  0  0  0  0  0  0  0  0  0  0
   10.0010   39.7920   15.4390 C   0  0  0  0  0  0  0  0  0  0  0  0
   10.0870   41.2370   15.8170 C   0  0  0  0  0  0  0  0  0  0  0  0
   11.1620   41.8450   15.6250 O   0  0  0  0  0  0  0  0  0  0  0  0
    9.1080   41.8190   16.3340 O   0  0  0  0  0  1  0  0  0  0  0  0
    9.7730   39.3890   14.1060 N   0  0  0  0  0  0  0  0  0  0  0  0
    9.6180   40.2290   12.9150 C   0  0  0  0  0  0  0  0  0  0  0  0
   10.1640   39.6160   11.6180 C   0  0  0  0  0  0  0  0  0  0  0  0
    9.3240   39.4350   10.4910 C   0  0  0  0  0  0  0  0  0  0  0  0
    9.8190   38.8740    9.3010 C   0  0  0  0  0  0  0  0  0  0  0  0
   11.1650   38.4800    9.2170 C   0  0  0  0  0  0  0  0  0  0  0  0
   12.0190   38.6480   10.3240 C   0  0  0  0  0  0  0  0  0  0  0  0
   13.3670   38.2470   10.2220 C   0  0  0  0  0  0  0  0  0  0  0  0
   14.2380   38.4050   11.3140 C   0  0  0  0  0  0  0  0  0  0  0  0
   13.7620   38.9650   12.5130 C   0  0  0  0  0  0  0  0  0  0  0  0
   12.4160   39.3670   12.6220 C   0  0  0  0  0  0  0  0  0  0  0  0
   11.5250   39.2160   11.5310 C   0  0  0  0  0  0  0  0  0  0  0  0
    9.7180   38.0020   14.0500 C   0  0  0  0  0  0  0  0  0  0  0  0
    9.5020   37.1130   12.9770 C   0  0  0  0  0  0  0  0  0  0  0  0
    9.5060   35.7270   13.2040 C   0  0  0  0  0  0  0  0  0  0  0  0
    9.7290   35.2340   14.5020 C   0  0  0  0  0  0  0  0  0  0  0  0
    9.7380   33.8990   14.7270 F   0  0  0  0  0  0  0  0  0  0  0  0
    9.9400   36.1290   15.5690 C   0  0  0  0  0  0  0  0  0  0  0  0
    9.9350   37.5310   15.3720 C   0  0  0  0  0  0  0  0  0  0  0  0
   12.9463   35.9071   18.0170 H   0  0  0  0  0  0  0  0  0  0  0  0
   12.0836   36.2133   16.4715 H   0  0  0  0  0  0  0  0  0  0  0  0
   13.6285   35.2967   16.4715 H   0  0  0  0  0  0  0  0  0  0  0  0
   14.3158   37.7069   17.7264 H   0  0  0  0  0  0  0  0  0  0  0  0
   14.6295   37.2939   16.0084 H   0  0  0  0  0  0  0  0  0  0  0  0
   11.2763   39.1802   20.2051 H   0  0  0  0  0  0  0  0  0  0  0  0
   11.9222   37.5661   19.7532 H   0  0  0  0  0  0  0  0  0  0  0  0
   13.0054   38.9991   19.7532 H   0  0  0  0  0  0  0  0  0  0  0  0
   10.0395   37.5513   18.0579 H   0  0  0  0  0  0  0  0  0  0  0  0
    9.5961   39.3083   18.1973 H   0  0  0  0  0  0  0  0  0  0  0  0
    8.5454   40.4280   12.7741 H   0  0  0  0  0  0  0  0  0  0  0  0
   10.2083   41.1387   13.0994 H   0  0  0  0  0  0  0  0  0  0  0  0
    8.2682   39.7383   10.5484 H   0  0  0  0  0  0  0  0  0  0  0  0
    9.1526   38.7435    8.4356 H   0  0  0  0  0  0  0  0  0  0  0  0
   11.5519   38.0401    8.2860 H   0  0  0  0  0  0  0  0  0  0  0  0
   13.7386   37.8087    9.2840 H   0  0  0  0  0  0  0  0  0  0  0  0
   15.2891   38.0914   11.2309 H   0  0  0  0  0  0  0  0  0  0  0  0
   14.4425   39.0895   13.3682 H   0  0  0  0  0  0  0  0  0  0  0  0
   12.0530   39.8028   13.5645 H   0  0  0  0  0  0  0  0  0  0  0  0
    9.3306   37.5045   11.9634 H   0  0  0  0  0  0  0  0  0  0  0  0
    9.3354   35.0302   12.3701 H   0  0  0  0  0  0  0  0  0  0  0  0
   10.1127   35.7292   16.5791 H   0  0  0  0  0  0  0  0  0  0  0  0
  1  2  1  0
  2  3  1  0
  3  4  1  0
  4  5  2  0
  4  6  1  0
  6  7  1  0
  6  8  1  0
  8  9  1  0
  9 10  2  0
 10 11  1  0
 11 12  2  0
 11 13  1  0
 10 14  1  0
 14 15  1  0
 15 16  1  0
 16 17  2  0
 17 18  1  0
 18 19  2  0
 19 20  1  0
 20 21  2  0
 21 22  1  0
 22 23  2  0
 23 24  1  0
 24 25  2  0
 14 26  1  0
 26 27  2  0
 27 28  1  0
 28 29  2  0
 29 30  1  0
 29 31  1  0
 31 32  2  0
 32  9  1  0
 25 16  1  0
 32 26  1  0
 25 20  1  0
  1 33  1  0
  1 34  1  0
  1 35  1  0
  2 36  1  0
  2 37  1  0
  7 38  1  0
  7 39  1  0
  7 40  1  0
  8 41  1  0
  8 42  1  0
 15 43  1  0
 15 44  1  0
 17 45  1  0
 18 46  1  0
 19 47  1  0
 21 48  1  0
 22 49  1  0
 23 50  1  0
 24 51  1  0
 27 52  1  0
 28 53  1  0
 31 54  1  0
M  CHG  1  13  -1
M  END
>  <meeko>  (143) 
{"free_energy": -4.07, "intermolecular_energy": -6.46, "internal_energy": -2.32, "cluster_size": 12, "cluster_id": 227, "rank_in_cluster": 8}

$$$$

     RDKit          3D

 54 57  0  0  0  0  0  0  0  0999 V2000
   10.1600   40.5620   15.4810 C   0  0  0  0  0  0  0  0  0  0  0  0
   10.5210   41.4560   14.2920 C   0  0  0  0  0  0  0  0  0  0  0  0
   11.8650   41.2070   13.9120 O   0  0  0  0  0  0  0  0  0  0  0  0
   12.2930   41.5490   12.6780 C   0  0  0  0  0  0  0  0  0  0  0  0
   11.7800   42.4460   12.0070 O   0  0  0  0  0  0  0  0  0  0  0  0
   13.3820   40.7540   12.2980 N   0  0  0  0  0  0  0  0  0  0  0  0
   14.6750   41.3320   11.9150 C   0  0  0  0  0  0  0  0  0  0  0  0
   13.2710   39.2900   12.2360 C   0  0  0  0  0  0  0  0  0  0  0  0
   11.8360   38.8280   12.1430 C   0  0  0  0  0  0  0  0  0  0  0  0
   10.9140   39.0610   11.1370 C   0  0  0  0  0  0  0  0  0  0  0  0
   11.0770   39.7990    9.8460 C   0  0  0  0  0  0  0  0  0  0  0  0
   10.4050   40.8360    9.6580 O   0  0  0  0  0  0  0  0  0  0  0  0
   11.8560   39.3750    8.9640 O   0  0  0  0  0  1  0  0  0  0  0  0
    9.6800   38.4880   11.5110 N   0  0  0  0  0  0  0  0  0  0  0  0
    8.4200   38.4720   10.7630 C   0  0  0  0  0  0  0  0  0  0  0  0
    8.2370   37.2640    9.8340 C   0  0  0  0  0  0  0  0  0  0  0  0
    8.6070   35.9620   10.2550 C   0  0  0  0  0  0  0  0  0  0  0  0
    8.4410   34.8530    9.4080 C   0  0  0  0  0  0  0  0  0  0  0  0
    7.9030   35.0250    8.1230 C   0  0  0  0  0  0  0  0  0  0  0  0
    7.5290   36.3080    7.6810 C   0  0  0  0  0  0  0  0  0  0  0  0
    6.9900   36.4620    6.3870 C   0  0  0  0  0  0  0  0  0  0  0  0
    6.6100   37.7350    5.9250 C   0  0  0  0  0  0  0  0  0  0  0  0
    6.7670   38.8570    6.7570 C   0  0  0  0  0  0  0  0  0  0  0  0
    7.3050   38.7100    8.0500 C   0  0  0  0  0  0  0  0  0  0  0  0
    7.6930   37.4350    8.5320 C   0  0  0  0  0  0  0  0  0  0  0  0
    9.8120   37.8890   12.7570 C   0  0  0  0  0  0  0  0  0  0  0  0
    8.8890   37.2030   13.5730 C   0  0  0  0  0  0  0  0  0  0  0  0
    9.3000   36.6800   14.8100 C   0  0  0  0  0  0  0  0  0  0  0  0
   10.6320   36.8440   15.2270 C   0  0  0  0  0  0  0  0  0  0  0  0
   11.0360   36.3380   16.4170 F   0  0  0  0  0  0  0  0  0  0  0  0
   11.5480   37.5340   14.4090 C   0  0  0  0  0  0  0  0  0  0  0  0
   11.1610   38.0780   13.1600 C   0  0  0  0  0  0  0  0  0  0  0  0
   10.3751   41.0948   16.4190 H   0  0  0  0  0  0  0  0  0  0  0  0
    9.0899   40.3107   15.4392 H   0  0  0  0  0  0  0  0  0  0  0  0
   10.7555   39.6381   15.4392 H   0  0  0  0  0  0  0  0  0  0  0  0
    9.8525   41.2326   13.4475 H   0  0  0  0  0  0  0  0  0  0  0  0
   10.4071   42.5125   14.5761 H   0  0  0  0  0  0  0  0  0  0  0  0
   15.2453   41.5869   12.8204 H   0  0  0  0  0  0  0  0  0  0  0  0
   15.2411   40.6013   11.3187 H   0  0  0  0  0  0  0  0  0  0  0  0
   14.5080   42.2412   11.3187 H   0  0  0  0  0  0  0  0  0  0  0  0
   13.8164   38.9309   11.3508 H   0  0  0  0  0  0  0  0  0  0  0  0
   13.6973   38.8803   13.1636 H   0  0  0  0  0  0  0  0  0  0  0  0
    7.5922   38.4748   11.4874 H   0  0  0  0  0  0  0  0  0  0  0  0
    8.4337   39.3609   10.1152 H   0  0  0  0  0  0  0  0  0  0  0  0
    9.0305   35.8175   11.2599 H   0  0  0  0  0  0  0  0  0  0  0  0
    8.7328   33.8498    9.7521 H   0  0  0  0  0  0  0  0  0  0  0  0
    7.7735   34.1563    7.4607 H   0  0  0  0  0  0  0  0  0  0  0  0
    6.8663   35.5835    5.7367 H   0  0  0  0  0  0  0  0  0  0  0  0
    6.1909   37.8523    4.9148 H   0  0  0  0  0  0  0  0  0  0  0  0
    6.4687   39.8527    6.3970 H   0  0  0  0  0  0  0  0  0  0  0  0
    7.4254   39.5944    8.6929 H   0  0  0  0  0  0  0  0  0  0  0  0
    7.8478   37.0776   13.2410 H   0  0  0  0  0  0  0  0  0  0  0  0
    8.5827   36.1446   15.4494 H   0  0  0  0  0  0  0  0  0  0  0  0
   12.5876   37.6530   14.7481 H   0  0  0  0  0  0  0  0  0  0  0  0
  1  2  1  0
  2  3  1  0
  3  4  1  0
  4  5  2  0
  4  6  1  0
  6  7  1  0
  6  8  1  0
  8  9  1  0
  9 10  2  0
 10 11  1  0
 11 12  2  0
 11 13  1  0
 10 14  1  0
 14 15  1  0
 15 16  1  0
 16 17  2  0
 17 18  1  0
 18 19  2  0
 19 20  1  0
 20 21  2  0
 21 22  1  0
 22 23  2  0
 23 24  1  0
 24 25  2  0
 14 26  1  0
 26 27  2  0
 27 28  1  0
 28 29  2  0
 29 30  1  0
 29 31  1  0
 31 32  2  0
 32  9  1  0
 25 16  1  0
 32 26  1  0
 25 20  1  0
  1 33  1  0
  1 34  1  0
  1 35  1  0
  2 36  1  0
  2 37  1  0
  7 38  1  0
  7 39  1  0
  7 40  1  0
  8 41  1  0
  8 42  1  0
 15 43  1  0
 15 44  1  0
 17 45  1  0
 18 46  1  0
 19 47  1  0
 21 48  1  0
 22 49  1  0
 23 50  1  0
 24 51  1  0
 27 52  1  0
 28 53  1  0
 31 54  1  0
M  CHG  1  13  -1
M  END
>  <meeko>  (144) 
{"free_energy": -6.28, "intermolecular_energy": -8.67, "internal_energy": -2.3, "cluster_size": 76, "cluster_id": 21, "rank_in_cluster": 17}

$$$$

     RDKit          3D

 54 57  0  0  0  0  0  0  0  0999 V2000
    7.0270   35.2250    7.1490 C   0  0  0  0  0  0  0  0  0  0  0  0
    7.4960   36.6270    7.5460 C   0  0  0  0  0  0  0  0  0  0  0  0
    8.6690   36.5210    8.3360 O   0  0  0  0  0  0  0  0  0  0  0  0
    8.8450   37.3340    9.4000 C   0  0  0  0  0  0  0  0  0  0  0  0
    8.4080   38.4850    9.4520 O   0  0  0  0  0  0  0  0  0  0  0  0
    9.5720   36.6810   10.4030 N   0  0  0  0  0  0  0  0  0  0  0  0
   11.0360   36.5990   10.3780 C   0  0  0  0  0  0  0  0  0  0  0  0
    8.8940   36.0160   11.5240 C   0  0  0  0  0  0  0  0  0  0  0  0
    9.2440   36.6390   12.8550 C   0  0  0  0  0  0  0  0  0  0  0  0
    9.2970   36.0430   14.1030 C   0  0  0  0  0  0  0  0  0  0  0  0
    9.0610   34.6180   14.4910 C   0  0  0  0  0  0  0  0  0  0  0  0
    9.8340   34.0840   15.3170 O   0  0  0  0  0  0  0  0  0  0  0  0
    8.1220   33.9670   13.9840 O   0  0  0  0  0  1  0  0  0  0  0  0
    9.6060   37.0300   15.0640 N   0  0  0  0  0  0  0  0  0  0  0  0
    9.7770   36.8700   16.5110 C   0  0  0  0  0  0  0  0  0  0  0  0
    8.4810   36.6000   17.2870 C   0  0  0  0  0  0  0  0  0  0  0  0
    7.3360   36.0830   16.6310 C   0  0  0  0  0  0  0  0  0  0  0  0
    6.1470   35.8350   17.3390 C   0  0  0  0  0  0  0  0  0  0  0  0
    6.0800   36.1010   18.7160 C   0  0  0  0  0  0  0  0  0  0  0  0
    7.2040   36.6170   19.3890 C   0  0  0  0  0  0  0  0  0  0  0  0
    7.1180   36.8790   20.7720 C   0  0  0  0  0  0  0  0  0  0  0  0
    8.2280   37.3950   21.4660 C   0  0  0  0  0  0  0  0  0  0  0  0
    9.4270   37.6490   20.7760 C   0  0  0  0  0  0  0  0  0  0  0  0
    9.5180   37.3900   19.3950 C   0  0  0  0  0  0  0  0  0  0  0  0
    8.4100   36.8700   18.6810 C   0  0  0  0  0  0  0  0  0  0  0  0
    9.7500   38.2570   14.4300 C   0  0  0  0  0  0  0  0  0  0  0  0
   10.0400   39.5440   14.9290 C   0  0  0  0  0  0  0  0  0  0  0  0
   10.1390   40.6320   14.0450 C   0  0  0  0  0  0  0  0  0  0  0  0
    9.9490   40.4290   12.6670 C   0  0  0  0  0  0  0  0  0  0  0  0
   10.0470   41.4730   11.8100 F   0  0  0  0  0  0  0  0  0  0  0  0
    9.6570   39.1420   12.1770 C   0  0  0  0  0  0  0  0  0  0  0  0
    9.5440   38.0280   13.0430 C   0  0  0  0  0  0  0  0  0  0  0  0
    6.8293   34.6341    8.0555 H   0  0  0  0  0  0  0  0  0  0  0  0
    6.1056   35.3016    6.5531 H   0  0  0  0  0  0  0  0  0  0  0  0
    7.8091   34.7318    6.5531 H   0  0  0  0  0  0  0  0  0  0  0  0
    7.7142   37.2120    6.6403 H   0  0  0  0  0  0  0  0  0  0  0  0
    6.7065   37.1308    8.1231 H   0  0  0  0  0  0  0  0  0  0  0  0
   11.4197   36.5775   11.4087 H   0  0  0  0  0  0  0  0  0  0  0  0
   11.3430   35.6823    9.8533 H   0  0  0  0  0  0  0  0  0  0  0  0
   11.4434   37.4757    9.8533 H   0  0  0  0  0  0  0  0  0  0  0  0
    7.8068   36.0893   11.3738 H   0  0  0  0  0  0  0  0  0  0  0  0
    9.2262   34.9676   11.5448 H   0  0  0  0  0  0  0  0  0  0  0  0
   10.4610   36.0259   16.6833 H   0  0  0  0  0  0  0  0  0  0  0  0
   10.1670   37.8284   16.8842 H   0  0  0  0  0  0  0  0  0  0  0  0
    7.3782   35.8727   15.5521 H   0  0  0  0  0  0  0  0  0  0  0  0
    5.2684   35.4322   16.8137 H   0  0  0  0  0  0  0  0  0  0  0  0
    5.1493   35.9063   19.2691 H   0  0  0  0  0  0  0  0  0  0  0  0
    6.1797   36.6792   21.3102 H   0  0  0  0  0  0  0  0  0  0  0  0
    8.1582   37.5991   22.5447 H   0  0  0  0  0  0  0  0  0  0  0  0
   10.2963   38.0512   21.3169 H   0  0  0  0  0  0  0  0  0  0  0  0
   10.4598   37.5936   18.8644 H   0  0  0  0  0  0  0  0  0  0  0  0
   10.1884   39.6958   16.0083 H   0  0  0  0  0  0  0  0  0  0  0  0
   10.3641   41.6377   14.4295 H   0  0  0  0  0  0  0  0  0  0  0  0
    9.5133   38.9987   11.0959 H   0  0  0  0  0  0  0  0  0  0  0  0
  1  2  1  0
  2  3  1  0
  3  4  1  0
  4  5  2  0
  4  6  1  0
  6  7  1  0
  6  8  1  0
  8  9  1  0
  9 10  2  0
 10 11  1  0
 11 12  2  0
 11 13  1  0
 10 14  1  0
 14 15  1  0
 15 16  1  0
 16 17  2  0
 17 18  1  0
 18 19  2  0
 19 20  1  0
 20 21  2  0
 21 22  1  0
 22 23  2  0
 23 24  1  0
 24 25  2  0
 14 26  1  0
 26 27  2  0
 27 28  1  0
 28 29  2  0
 29 30  1  0
 29 31  1  0
 31 32  2  0
 32  9  1  0
 25 16  1  0
 32 26  1  0
 25 20  1  0
  1 33  1  0
  1 34  1  0
  1 35  1  0
  2 36  1  0
  2 37  1  0
  7 38  1  0
  7 39  1  0
  7 40  1  0
  8 41  1  0
  8 42  1  0
 15 43  1  0
 15 44  1  0
 17 45  1  0
 18 46  1  0
 19 47  1  0
 21 48  1  0
 22 49  1  0
 23 50  1  0
 24 51  1  0
 27 52  1  0
 28 53  1  0
 31 54  1  0
M  CHG  1  13  -1
M  END
>  <meeko>  (145) 
{"free_energy": -6.89, "intermolecular_energy": -9.28, "internal_energy": -1.57, "cluster_size": 136, "cluster_id": 23, "rank_in_cluster": 2}

$$$$

     RDKit          3D

 54 57  0  0  0  0  0  0  0  0999 V2000
   13.4150   38.5230   16.3500 C   0  0  0  0  0  0  0  0  0  0  0  0
   12.7140   39.6450   17.1200 C   0  0  0  0  0  0  0  0  0  0  0  0
   12.4410   39.2060   18.4400 O   0  0  0  0  0  0  0  0  0  0  0  0
   11.6090   38.1630   18.6480 C   0  0  0  0  0  0  0  0  0  0  0  0
   11.9720   36.9870   18.5950 O   0  0  0  0  0  0  0  0  0  0  0  0
   10.3140   38.6160   18.9300 N   0  0  0  0  0  0  0  0  0  0  0  0
   10.0100   39.4200   20.1190 C   0  0  0  0  0  0  0  0  0  0  0  0
    9.1820   38.2790   18.0570 C   0  0  0  0  0  0  0  0  0  0  0  0
    9.6320   37.7800   16.7040 C   0  0  0  0  0  0  0  0  0  0  0  0
    9.9170   38.5080   15.5620 C   0  0  0  0  0  0  0  0  0  0  0  0
    9.8980   39.9880   15.3450 C   0  0  0  0  0  0  0  0  0  0  0  0
    9.2860   40.7070   16.1650 O   0  0  0  0  0  0  0  0  0  0  0  0
   10.4650   40.4930   14.3520 O   0  0  0  0  0  1  0  0  0  0  0  0
   10.2370   37.6110   14.5200 N   0  0  0  0  0  0  0  0  0  0  0  0
   10.6150   37.9200   13.1380 C   0  0  0  0  0  0  0  0  0  0  0  0
    9.5990   37.4750   12.0770 C   0  0  0  0  0  0  0  0  0  0  0  0
    8.9650   36.2100   12.1640 C   0  0  0  0  0  0  0  0  0  0  0  0
    8.0340   35.7990   11.1950 C   0  0  0  0  0  0  0  0  0  0  0  0
    7.7210   36.6450   10.1180 C   0  0  0  0  0  0  0  0  0  0  0  0
    8.3380   37.9050   10.0090 C   0  0  0  0  0  0  0  0  0  0  0  0
    8.0120   38.7410    8.9210 C   0  0  0  0  0  0  0  0  0  0  0  0
    8.6170   40.0040    8.7920 C   0  0  0  0  0  0  0  0  0  0  0  0
    9.5500   40.4340    9.7510 C   0  0  0  0  0  0  0  0  0  0  0  0
    9.8810   39.6040   10.8390 C   0  0  0  0  0  0  0  0  0  0  0  0
    9.2810   38.3290   10.9860 C   0  0  0  0  0  0  0  0  0  0  0  0
   10.1570   36.3090   14.9950 C   0  0  0  0  0  0  0  0  0  0  0  0
   10.3620   35.0640   14.3650 C   0  0  0  0  0  0  0  0  0  0  0  0
   10.2190   33.8750   15.1000 C   0  0  0  0  0  0  0  0  0  0  0  0
    9.8730   33.9340   16.4610 C   0  0  0  0  0  0  0  0  0  0  0  0
    9.7380   32.7920   17.1750 F   0  0  0  0  0  0  0  0  0  0  0  0
    9.6660   35.1810   17.0820 C   0  0  0  0  0  0  0  0  0  0  0  0
    9.7960   36.3960   16.3660 C   0  0  0  0  0  0  0  0  0  0  0  0
   13.8593   37.8118   17.0619 H   0  0  0  0  0  0  0  0  0  0  0  0
   12.6830   37.9996   15.7174 H   0  0  0  0  0  0  0  0  0  0  0  0
   14.2064   38.9513   15.7174 H   0  0  0  0  0  0  0  0  0  0  0  0
   13.3659   40.5303   17.1544 H   0  0  0  0  0  0  0  0  0  0  0  0
   11.7720   39.9061   16.6156 H   0  0  0  0  0  0  0  0  0  0  0  0
   10.2313   38.8348   21.0237 H   0  0  0  0  0  0  0  0  0  0  0  0
   10.6255   40.3317   20.1124 H   0  0  0  0  0  0  0  0  0  0  0  0
    8.9453   39.6964   20.1124 H   0  0  0  0  0  0  0  0  0  0  0  0
    8.5821   37.4948   18.5420 H   0  0  0  0  0  0  0  0  0  0  0  0
    8.5931   39.1947   17.8999 H   0  0  0  0  0  0  0  0  0  0  0  0
   10.7426   39.0093   13.0537 H   0  0  0  0  0  0  0  0  0  0  0  0
   11.5386   37.3575   12.9369 H   0  0  0  0  0  0  0  0  0  0  0  0
    9.2055   35.5401   13.0027 H   0  0  0  0  0  0  0  0  0  0  0  0
    7.5502   34.8147   11.2798 H   0  0  0  0  0  0  0  0  0  0  0  0
    6.9930   36.3222    9.3592 H   0  0  0  0  0  0  0  0  0  0  0  0
    7.2818   38.4039    8.1705 H   0  0  0  0  0  0  0  0  0  0  0  0
    8.3605   40.6539    7.9424 H   0  0  0  0  0  0  0  0  0  0  0  0
   10.0231   41.4220    9.6513 H   0  0  0  0  0  0  0  0  0  0  0  0
   10.6137   39.9493   11.5833 H   0  0  0  0  0  0  0  0  0  0  0  0
   10.6334   35.0238   13.2998 H   0  0  0  0  0  0  0  0  0  0  0  0
   10.3772   32.9019   14.6122 H   0  0  0  0  0  0  0  0  0  0  0  0
    9.3970   35.2120   18.1482 H   0  0  0  0  0  0  0  0  0  0  0  0
  1  2  1  0
  2  3  1  0
  3  4  1  0
  4  5  2  0
  4  6  1  0
  6  7  1  0
  6  8  1  0
  8  9  1  0
  9 10  2  0
 10 11  1  0
 11 12  2  0
 11 13  1  0
 10 14  1  0
 14 15  1  0
 15 16  1  0
 16 17  2  0
 17 18  1  0
 18 19  2  0
 19 20  1  0
 20 21  2  0
 21 22  1  0
 22 23  2  0
 23 24  1  0
 24 25  2  0
 14 26  1  0
 26 27  2  0
 27 28  1  0
 28 29  2  0
 29 30  1  0
 29 31  1  0
 31 32  2  0
 32  9  1  0
 25 16  1  0
 32 26  1  0
 25 20  1  0
  1 33  1  0
  1 34  1  0
  1 35  1  0
  2 36  1  0
  2 37  1  0
  7 38  1  0
  7 39  1  0
  7 40  1  0
  8 41  1  0
  8 42  1  0
 15 43  1  0
 15 44  1  0
 17 45  1  0
 18 46  1  0
 19 47  1  0
 21 48  1  0
 22 49  1  0
 23 50  1  0
 24 51  1  0
 27 52  1  0
 28 53  1  0
 31 54  1  0
M  CHG  1  13  -1
M  END
>  <meeko>  (146) 
{"free_energy": -5.49, "intermolecular_energy": -7.88, "internal_energy": -1.96, "cluster_size": 326, "cluster_id": 11, "rank_in_cluster": 223}

$$$$

     RDKit          3D

 54 57  0  0  0  0  0  0  0  0999 V2000
   17.0050   37.0000   12.3610 C   0  0  0  0  0  0  0  0  0  0  0  0
   16.2010   37.9890   13.2090 C   0  0  0  0  0  0  0  0  0  0  0  0
   15.4090   38.7990   12.3560 O   0  0  0  0  0  0  0  0  0  0  0  0
   15.0230   40.0290   12.7580 C   0  0  0  0  0  0  0  0  0  0  0  0
   15.0820   40.4090   13.9280 O   0  0  0  0  0  0  0  0  0  0  0  0
   14.5680   40.7820   11.6680 N   0  0  0  0  0  0  0  0  0  0  0  0
   15.3200   40.8680   10.4110 C   0  0  0  0  0  0  0  0  0  0  0  0
   13.3190   41.5510   11.7420 C   0  0  0  0  0  0  0  0  0  0  0  0
   12.1020   40.6600   11.8260 C   0  0  0  0  0  0  0  0  0  0  0  0
   11.0260   40.5770   10.9600 C   0  0  0  0  0  0  0  0  0  0  0  0
   10.7720   41.3130    9.6820 C   0  0  0  0  0  0  0  0  0  0  0  0
   11.6870   42.0150    9.2010 O   0  0  0  0  0  0  0  0  0  0  0  0
    9.6590   41.2410    9.1170 O   0  0  0  0  0  1  0  0  0  0  0  0
   10.0960   39.6500   11.4770 N   0  0  0  0  0  0  0  0  0  0  0  0
    8.8150   39.2290   10.9030 C   0  0  0  0  0  0  0  0  0  0  0  0
    8.8250   37.8370   10.2580 C   0  0  0  0  0  0  0  0  0  0  0  0
    9.5020   36.7550   10.8740 C   0  0  0  0  0  0  0  0  0  0  0  0
    9.5130   35.4780   10.2870 C   0  0  0  0  0  0  0  0  0  0  0  0
    8.8490   35.2600    9.0690 C   0  0  0  0  0  0  0  0  0  0  0  0
    8.1700   36.3190    8.4360 C   0  0  0  0  0  0  0  0  0  0  0  0
    7.5090   36.0810    7.2130 C   0  0  0  0  0  0  0  0  0  0  0  0
    6.8250   37.1240    6.5630 C   0  0  0  0  0  0  0  0  0  0  0  0
    6.8020   38.4080    7.1350 C   0  0  0  0  0  0  0  0  0  0  0  0
    7.4610   38.6520    8.3560 C   0  0  0  0  0  0  0  0  0  0  0  0
    8.1540   37.6130    9.0240 C   0  0  0  0  0  0  0  0  0  0  0  0
   10.5780   39.1390   12.6760 C   0  0  0  0  0  0  0  0  0  0  0  0
   10.0360   38.2080   13.5850 C   0  0  0  0  0  0  0  0  0  0  0  0
   10.7550   37.8560   14.7400 C   0  0  0  0  0  0  0  0  0  0  0  0
   12.0130   38.4360   14.9810 C   0  0  0  0  0  0  0  0  0  0  0  0
   12.7120   38.0990   16.0900 F   0  0  0  0  0  0  0  0  0  0  0  0
   12.5450   39.3690   14.0700 C   0  0  0  0  0  0  0  0  0  0  0  0
   11.8420   39.7480   12.9010 C   0  0  0  0  0  0  0  0  0  0  0  0
   17.5599   36.3174   13.0213 H   0  0  0  0  0  0  0  0  0  0  0  0
   16.3195   36.4195   11.7262 H   0  0  0  0  0  0  0  0  0  0  0  0
   17.7133   37.5526   11.7262 H   0  0  0  0  0  0  0  0  0  0  0  0
   15.5487   37.4353   13.9003 H   0  0  0  0  0  0  0  0  0  0  0  0
   16.8885   38.6237   13.7874 H   0  0  0  0  0  0  0  0  0  0  0  0
   16.3906   40.9904   10.6319 H   0  0  0  0  0  0  0  0  0  0  0  0
   15.1686   39.9467    9.8294 H   0  0  0  0  0  0  0  0  0  0  0  0
   14.9645   41.7313    9.8294 H   0  0  0  0  0  0  0  0  0  0  0  0
   13.3506   42.1921   12.6353 H   0  0  0  0  0  0  0  0  0  0  0  0
   13.2362   42.1483   10.8220 H   0  0  0  0  0  0  0  0  0  0  0  0
    8.0638   39.2283   11.7065 H   0  0  0  0  0  0  0  0  0  0  0  0
    8.5879   39.9420   10.0968 H   0  0  0  0  0  0  0  0  0  0  0  0
   10.0273   36.9172   11.8268 H   0  0  0  0  0  0  0  0  0  0  0  0
   10.0415   34.6497   10.7815 H   0  0  0  0  0  0  0  0  0  0  0  0
    8.8592   34.2609    8.6088 H   0  0  0  0  0  0  0  0  0  0  0  0
    7.5285   35.0761    6.7660 H   0  0  0  0  0  0  0  0  0  0  0  0
    6.3095   36.9356    5.6097 H   0  0  0  0  0  0  0  0  0  0  0  0
    6.2677   39.2248    6.6276 H   0  0  0  0  0  0  0  0  0  0  0  0
    7.4371   39.6602    8.7953 H   0  0  0  0  0  0  0  0  0  0  0  0
    9.0515   37.7575   13.3906 H   0  0  0  0  0  0  0  0  0  0  0  0
   10.3356   37.1301   15.4522 H   0  0  0  0  0  0  0  0  0  0  0  0
   13.5306   39.8140   14.2716 H   0  0  0  0  0  0  0  0  0  0  0  0
  1  2  1  0
  2  3  1  0
  3  4  1  0
  4  5  2  0
  4  6  1  0
  6  7  1  0
  6  8  1  0
  8  9  1  0
  9 10  2  0
 10 11  1  0
 11 12  2  0
 11 13  1  0
 10 14  1  0
 14 15  1  0
 15 16  1  0
 16 17  2  0
 17 18  1  0
 18 19  2  0
 19 20  1  0
 20 21  2  0
 21 22  1  0
 22 23  2  0
 23 24  1  0
 24 25  2  0
 14 26  1  0
 26 27  2  0
 27 28  1  0
 28 29  2  0
 29 30  1  0
 29 31  1  0
 31 32  2  0
 32  9  1  0
 25 16  1  0
 32 26  1  0
 25 20  1  0
  1 33  1  0
  1 34  1  0
  1 35  1  0
  2 36  1  0
  2 37  1  0
  7 38  1  0
  7 39  1  0
  7 40  1  0
  8 41  1  0
  8 42  1  0
 15 43  1  0
 15 44  1  0
 17 45  1  0
 18 46  1  0
 19 47  1  0
 21 48  1  0
 22 49  1  0
 23 50  1  0
 24 51  1  0
 27 52  1  0
 28 53  1  0
 31 54  1  0
M  CHG  1  13  -1
M  END
>  <meeko>  (147) 
{"free_energy": -5.37, "intermolecular_energy": -7.75, "internal_energy": -1.42, "cluster_size": 292, "cluster_id": 10, "rank_in_cluster": 245}

$$$$

     RDKit          3D

 54 57  0  0  0  0  0  0  0  0999 V2000
    9.1990   43.8490   12.5910 C   0  0  0  0  0  0  0  0  0  0  0  0
    8.4160   42.5850   12.9540 C   0  0  0  0  0  0  0  0  0  0  0  0
    9.3050   41.6300   13.5120 O   0  0  0  0  0  0  0  0  0  0  0  0
   10.6020   41.9480   13.7100 C   0  0  0  0  0  0  0  0  0  0  0  0
   11.0110   42.5280   14.7180 O   0  0  0  0  0  0  0  0  0  0  0  0
   11.3830   41.5210   12.6290 N   0  0  0  0  0  0  0  0  0  0  0  0
   12.7330   42.0440   12.3870 C   0  0  0  0  0  0  0  0  0  0  0  0
   10.8730   40.5420   11.6590 C   0  0  0  0  0  0  0  0  0  0  0  0
   10.6210   39.1920   12.2880 C   0  0  0  0  0  0  0  0  0  0  0  0
   11.1880   38.6470   13.4260 C   0  0  0  0  0  0  0  0  0  0  0  0
   12.1790   39.2410   14.3770 C   0  0  0  0  0  0  0  0  0  0  0  0
   11.7790   39.6290   15.4960 O   0  0  0  0  0  0  0  0  0  0  0  0
   13.3800   39.3630   14.0510 O   0  0  0  0  0  1  0  0  0  0  0  0
   10.6970   37.3340   13.5940 N   0  0  0  0  0  0  0  0  0  0  0  0
   11.0060   36.3760   14.6590 C   0  0  0  0  0  0  0  0  0  0  0  0
    9.7800   35.7650   15.3520 C   0  0  0  0  0  0  0  0  0  0  0  0
    9.2960   34.4870   14.9770 C   0  0  0  0  0  0  0  0  0  0  0  0
    8.1740   33.9230   15.6090 C   0  0  0  0  0  0  0  0  0  0  0  0
    7.5130   34.6290   16.6270 C   0  0  0  0  0  0  0  0  0  0  0  0
    7.9730   35.9020   17.0160 C   0  0  0  0  0  0  0  0  0  0  0  0
    7.2970   36.5970   18.0390 C   0  0  0  0  0  0  0  0  0  0  0  0
    7.7380   37.8690   18.4440 C   0  0  0  0  0  0  0  0  0  0  0  0
    8.8600   38.4490   17.8250 C   0  0  0  0  0  0  0  0  0  0  0  0
    9.5390   37.7610   16.8020 C   0  0  0  0  0  0  0  0  0  0  0  0
    9.1080   36.4780   16.3820 C   0  0  0  0  0  0  0  0  0  0  0  0
    9.8160   37.0400   12.5620 C   0  0  0  0  0  0  0  0  0  0  0  0
    9.0760   35.8770   12.2610 C   0  0  0  0  0  0  0  0  0  0  0  0
    8.2360   35.8540   11.1350 C   0  0  0  0  0  0  0  0  0  0  0  0
    8.1380   36.9910   10.3150 C   0  0  0  0  0  0  0  0  0  0  0  0
    7.3270   36.9760    9.2300 F   0  0  0  0  0  0  0  0  0  0  0  0
    8.8830   38.1470   10.6200 C   0  0  0  0  0  0  0  0  0  0  0  0
    9.7430   38.1990   11.7440 C   0  0  0  0  0  0  0  0  0  0  0  0
    9.5161   44.3609   13.5115 H   0  0  0  0  0  0  0  0  0  0  0  0
   10.0853   43.5743   12.0003 H   0  0  0  0  0  0  0  0  0  0  0  0
    8.5583   44.5202   12.0003 H   0  0  0  0  0  0  0  0  0  0  0  0
    7.6353   42.8338   13.6879 H   0  0  0  0  0  0  0  0  0  0  0  0
    7.9460   42.1690   12.0506 H   0  0  0  0  0  0  0  0  0  0  0  0
   13.2297   42.2364   13.3494 H   0  0  0  0  0  0  0  0  0  0  0  0
   13.3150   41.3063   11.8151 H   0  0  0  0  0  0  0  0  0  0  0  0
   12.6661   42.9813   11.8151 H   0  0  0  0  0  0  0  0  0  0  0  0
    9.9287   40.9187   11.2389 H   0  0  0  0  0  0  0  0  0  0  0  0
   11.6361   40.4127   10.8774 H   0  0  0  0  0  0  0  0  0  0  0  0
   11.5954   35.5567   14.2216 H   0  0  0  0  0  0  0  0  0  0  0  0
   11.5503   36.9380   15.4322 H   0  0  0  0  0  0  0  0  0  0  0  0
    9.8061   33.9276   14.1790 H   0  0  0  0  0  0  0  0  0  0  0  0
    7.8139   32.9287   15.3061 H   0  0  0  0  0  0  0  0  0  0  0  0
    6.6351   34.1874   17.1211 H   0  0  0  0  0  0  0  0  0  0  0  0
    6.4202   36.1420   18.5228 H   0  0  0  0  0  0  0  0  0  0  0  0
    7.2074   38.4088   19.2422 H   0  0  0  0  0  0  0  0  0  0  0  0
    9.2079   39.4434   18.1414 H   0  0  0  0  0  0  0  0  0  0  0  0
   10.4141   38.2244   16.3231 H   0  0  0  0  0  0  0  0  0  0  0  0
    9.1566   34.9901   12.9066 H   0  0  0  0  0  0  0  0  0  0  0  0
    7.6573   34.9495   10.8962 H   0  0  0  0  0  0  0  0  0  0  0  0
    8.7947   39.0300    9.9699 H   0  0  0  0  0  0  0  0  0  0  0  0
  1  2  1  0
  2  3  1  0
  3  4  1  0
  4  5  2  0
  4  6  1  0
  6  7  1  0
  6  8  1  0
  8  9  1  0
  9 10  2  0
 10 11  1  0
 11 12  2  0
 11 13  1  0
 10 14  1  0
 14 15  1  0
 15 16  1  0
 16 17  2  0
 17 18  1  0
 18 19  2  0
 19 20  1  0
 20 21  2  0
 21 22  1  0
 22 23  2  0
 23 24  1  0
 24 25  2  0
 14 26  1  0
 26 27  2  0
 27 28  1  0
 28 29  2  0
 29 30  1  0
 29 31  1  0
 31 32  2  0
 32  9  1  0
 25 16  1  0
 32 26  1  0
 25 20  1  0
  1 33  1  0
  1 34  1  0
  1 35  1  0
  2 36  1  0
  2 37  1  0
  7 38  1  0
  7 39  1  0
  7 40  1  0
  8 41  1  0
  8 42  1  0
 15 43  1  0
 15 44  1  0
 17 45  1  0
 18 46  1  0
 19 47  1  0
 21 48  1  0
 22 49  1  0
 23 50  1  0
 24 51  1  0
 27 52  1  0
 28 53  1  0
 31 54  1  0
M  CHG  1  13  -1
M  END
>  <meeko>  (148) 
{"free_energy": -4.62, "intermolecular_energy": -7.01, "internal_energy": -1.92, "cluster_size": 121, "cluster_id": 34, "rank_in_cluster": 114}

$$$$

     RDKit          3D

 54 57  0  0  0  0  0  0  0  0999 V2000
   13.5110   42.6510   14.6510 C   0  0  0  0  0  0  0  0  0  0  0  0
   11.9910   42.7620   14.7930 C   0  0  0  0  0  0  0  0  0  0  0  0
   11.4480   43.2960   13.5970 O   0  0  0  0  0  0  0  0  0  0  0  0
   11.3440   42.5210   12.4960 C   0  0  0  0  0  0  0  0  0  0  0  0
   11.5610   42.9320   11.3550 O   0  0  0  0  0  0  0  0  0  0  0  0
   10.9690   41.2180   12.8460 N   0  0  0  0  0  0  0  0  0  0  0  0
    9.6220   40.8960   13.3300 C   0  0  0  0  0  0  0  0  0  0  0  0
   11.9250   40.1050   12.7730 C   0  0  0  0  0  0  0  0  0  0  0  0
   11.3290   38.8060   13.2620 C   0  0  0  0  0  0  0  0  0  0  0  0
   11.6220   38.0970   14.4140 C   0  0  0  0  0  0  0  0  0  0  0  0
   12.5790   38.4240   15.5170 C   0  0  0  0  0  0  0  0  0  0  0  0
   13.6940   37.8590   15.5320 O   0  0  0  0  0  0  0  0  0  0  0  0
   12.2610   39.2310   16.4170 O   0  0  0  0  0  1  0  0  0  0  0  0
   10.8620   36.9080   14.4220 N   0  0  0  0  0  0  0  0  0  0  0  0
   10.8320   35.8540   15.4400 C   0  0  0  0  0  0  0  0  0  0  0  0
    9.4850   35.6880   16.1570 C   0  0  0  0  0  0  0  0  0  0  0  0
    8.6760   34.5480   15.9260 C   0  0  0  0  0  0  0  0  0  0  0  0
    7.4420   34.3920   16.5810 C   0  0  0  0  0  0  0  0  0  0  0  0
    6.9930   35.3750   17.4770 C   0  0  0  0  0  0  0  0  0  0  0  0
    7.7780   36.5180   17.7210 C   0  0  0  0  0  0  0  0  0  0  0  0
    7.3110   37.4960   18.6240 C   0  0  0  0  0  0  0  0  0  0  0  0
    8.0780   38.6450   18.8830 C   0  0  0  0  0  0  0  0  0  0  0  0
    9.3160   38.8190   18.2390 C   0  0  0  0  0  0  0  0  0  0  0  0
    9.7880   37.8470   17.3360 C   0  0  0  0  0  0  0  0  0  0  0  0
    9.0280   36.6830   17.0640 C   0  0  0  0  0  0  0  0  0  0  0  0
   10.0830   36.8550   13.2740 C   0  0  0  0  0  0  0  0  0  0  0  0
    9.1720   35.8890   12.8000 C   0  0  0  0  0  0  0  0  0  0  0  0
    8.4990   36.0970   11.5850 C   0  0  0  0  0  0  0  0  0  0  0  0
    8.7370   37.2700   10.8490 C   0  0  0  0  0  0  0  0  0  0  0  0
    8.0880   37.4790    9.6780 F   0  0  0  0  0  0  0  0  0  0  0  0
    9.6500   38.2290   11.3270 C   0  0  0  0  0  0  0  0  0  0  0  0
   10.3490   38.0450   12.5440 C   0  0  0  0  0  0  0  0  0  0  0  0
   13.9711   42.6174   15.6496 H   0  0  0  0  0  0  0  0  0  0  0  0
   13.7617   41.7322   14.1007 H   0  0  0  0  0  0  0  0  0  0  0  0
   13.8926   43.5237   14.1007 H   0  0  0  0  0  0  0  0  0  0  0  0
   11.5650   41.7647   14.9771 H   0  0  0  0  0  0  0  0  0  0  0  0
   11.7464   43.4235   15.6371 H   0  0  0  0  0  0  0  0  0  0  0  0
    9.6181   40.8951   14.4300 H   0  0  0  0  0  0  0  0  0  0  0  0
    8.9101   41.6493   12.9615 H   0  0  0  0  0  0  0  0  0  0  0  0
    9.3278   39.9022   12.9615 H   0  0  0  0  0  0  0  0  0  0  0  0
   12.2411   39.9779   11.7271 H   0  0  0  0  0  0  0  0  0  0  0  0
   12.7780   40.3502   13.4228 H   0  0  0  0  0  0  0  0  0  0  0  0
   11.0793   34.8998   14.9517 H   0  0  0  0  0  0  0  0  0  0  0  0
   11.5586   36.1487   16.2115 H   0  0  0  0  0  0  0  0  0  0  0  0
    9.0185   33.7737   15.2238 H   0  0  0  0  0  0  0  0  0  0  0  0
    6.8279   33.4993   16.3914 H   0  0  0  0  0  0  0  0  0  0  0  0
    6.0271   35.2521   17.9888 H   0  0  0  0  0  0  0  0  0  0  0  0
    6.3427   37.3588   19.1275 H   0  0  0  0  0  0  0  0  0  0  0  0
    7.7109   39.4060   19.5874 H   0  0  0  0  0  0  0  0  0  0  0  0
    9.9177   39.7174   18.4413 H   0  0  0  0  0  0  0  0  0  0  0  0
   10.7571   37.9932   16.8366 H   0  0  0  0  0  0  0  0  0  0  0  0
    8.9885   34.9733   13.3812 H   0  0  0  0  0  0  0  0  0  0  0  0
    7.7887   35.3449   11.2112 H   0  0  0  0  0  0  0  0  0  0  0  0
    9.8244   39.1432   10.7407 H   0  0  0  0  0  0  0  0  0  0  0  0
  1  2  1  0
  2  3  1  0
  3  4  1  0
  4  5  2  0
  4  6  1  0
  6  7  1  0
  6  8  1  0
  8  9  1  0
  9 10  2  0
 10 11  1  0
 11 12  2  0
 11 13  1  0
 10 14  1  0
 14 15  1  0
 15 16  1  0
 16 17  2  0
 17 18  1  0
 18 19  2  0
 19 20  1  0
 20 21  2  0
 21 22  1  0
 22 23  2  0
 23 24  1  0
 24 25  2  0
 14 26  1  0
 26 27  2  0
 27 28  1  0
 28 29  2  0
 29 30  1  0
 29 31  1  0
 31 32  2  0
 32  9  1  0
 25 16  1  0
 32 26  1  0
 25 20  1  0
  1 33  1  0
  1 34  1  0
  1 35  1  0
  2 36  1  0
  2 37  1  0
  7 38  1  0
  7 39  1  0
  7 40  1  0
  8 41  1  0
  8 42  1  0
 15 43  1  0
 15 44  1  0
 17 45  1  0
 18 46  1  0
 19 47  1  0
 21 48  1  0
 22 49  1  0
 23 50  1  0
 24 51  1  0
 27 52  1  0
 28 53  1  0
 31 54  1  0
M  CHG  1  13  -1
M  END
>  <meeko>  (149) 
{"free_energy": -4.17, "intermolecular_energy": -6.55, "internal_energy": -2.07, "cluster_size": 25, "cluster_id": 117, "rank_in_cluster": 24}

$$$$

     RDKit          3D

 54 57  0  0  0  0  0  0  0  0999 V2000
   15.5300   43.2970   16.2150 C   0  0  0  0  0  0  0  0  0  0  0  0
   14.3350   43.0450   17.1390 C   0  0  0  0  0  0  0  0  0  0  0  0
   13.3510   42.3030   16.4380 O   0  0  0  0  0  0  0  0  0  0  0  0
   13.6260   41.0530   16.0070 C   0  0  0  0  0  0  0  0  0  0  0  0
   14.5580   40.3760   16.4430 O   0  0  0  0  0  0  0  0  0  0  0  0
   12.7080   40.6580   15.0250 N   0  0  0  0  0  0  0  0  0  0  0  0
   11.7510   41.5970   14.4300 C   0  0  0  0  0  0  0  0  0  0  0  0
   12.6410   39.2660   14.5600 C   0  0  0  0  0  0  0  0  0  0  0  0
   12.4850   39.1710   13.0610 C   0  0  0  0  0  0  0  0  0  0  0  0
   11.3370   39.2980   12.2990 C   0  0  0  0  0  0  0  0  0  0  0  0
    9.9360   39.5980   12.7270 C   0  0  0  0  0  0  0  0  0  0  0  0
    9.2370   40.3490   12.0130 O   0  0  0  0  0  0  0  0  0  0  0  0
    9.4800   39.1230   13.7900 O   0  0  0  0  0  1  0  0  0  0  0  0
   11.6630   39.0680   10.9450 N   0  0  0  0  0  0  0  0  0  0  0  0
   10.7790   39.1040    9.7760 C   0  0  0  0  0  0  0  0  0  0  0  0
    9.9880   37.8140    9.5260 C   0  0  0  0  0  0  0  0  0  0  0  0
   10.3760   36.5940   10.1350 C   0  0  0  0  0  0  0  0  0  0  0  0
    9.6540   35.4100    9.9080 C   0  0  0  0  0  0  0  0  0  0  0  0
    8.5310   35.4220    9.0660 C   0  0  0  0  0  0  0  0  0  0  0  0
    8.1260   36.6210    8.4480 C   0  0  0  0  0  0  0  0  0  0  0  0
    6.9960   36.6140    7.6050 C   0  0  0  0  0  0  0  0  0  0  0  0
    6.5730   37.8000    6.9760 C   0  0  0  0  0  0  0  0  0  0  0  0
    7.2820   38.9950    7.1910 C   0  0  0  0  0  0  0  0  0  0  0  0
    8.4120   39.0080    8.0320 C   0  0  0  0  0  0  0  0  0  0  0  0
    8.8510   37.8230    8.6730 C   0  0  0  0  0  0  0  0  0  0  0  0
   13.0210   38.7930   10.8410 C   0  0  0  0  0  0  0  0  0  0  0  0
   13.8350   38.4850    9.7320 C   0  0  0  0  0  0  0  0  0  0  0  0
   15.2090   38.2550    9.9130 C   0  0  0  0  0  0  0  0  0  0  0  0
   15.7640   38.3360   11.2020 C   0  0  0  0  0  0  0  0  0  0  0  0
   17.0890   38.1200   11.3830 F   0  0  0  0  0  0  0  0  0  0  0  0
   14.9440   38.6410   12.3060 C   0  0  0  0  0  0  0  0  0  0  0  0
   13.5550   38.8710   12.1550 C   0  0  0  0  0  0  0  0  0  0  0  0
   16.4284   43.4865   16.8208 H   0  0  0  0  0  0  0  0  0  0  0  0
   15.6953   42.4140   15.5802 H   0  0  0  0  0  0  0  0  0  0  0  0
   15.3247   44.1716   15.5802 H   0  0  0  0  0  0  0  0  0  0  0  0
   14.6654   42.4764   18.0208 H   0  0  0  0  0  0  0  0  0  0  0  0
   13.9105   44.0063   17.4641 H   0  0  0  0  0  0  0  0  0  0  0  0
   11.2115   42.1264   15.2292 H   0  0  0  0  0  0  0  0  0  0  0  0
   12.2909   42.3255   13.8073 H   0  0  0  0  0  0  0  0  0  0  0  0
   11.0329   41.0433   13.8073 H   0  0  0  0  0  0  0  0  0  0  0  0
   13.5672   38.7499   14.8530 H   0  0  0  0  0  0  0  0  0  0  0  0
   11.7585   38.7986   15.0211 H   0  0  0  0  0  0  0  0  0  0  0  0
   10.0597   39.9243    9.9164 H   0  0  0  0  0  0  0  0  0  0  0  0
   11.4302   39.2418    8.9003 H   0  0  0  0  0  0  0  0  0  0  0  0
   11.2556   36.5739   10.7952 H   0  0  0  0  0  0  0  0  0  0  0  0
    9.9691   34.4731   10.3905 H   0  0  0  0  0  0  0  0  0  0  0  0
    7.9669   34.4944    8.8887 H   0  0  0  0  0  0  0  0  0  0  0  0
    6.4427   35.6780    7.4382 H   0  0  0  0  0  0  0  0  0  0  0  0
    5.6910   37.7920    6.3187 H   0  0  0  0  0  0  0  0  0  0  0  0
    6.9531   39.9231    6.7007 H   0  0  0  0  0  0  0  0  0  0  0  0
    8.9596   39.9484    8.1929 H   0  0  0  0  0  0  0  0  0  0  0  0
   13.3947   38.4248    8.7258 H   0  0  0  0  0  0  0  0  0  0  0  0
   15.8473   38.0128    9.0505 H   0  0  0  0  0  0  0  0  0  0  0  0
   15.3930   38.7019   13.3084 H   0  0  0  0  0  0  0  0  0  0  0  0
  1  2  1  0
  2  3  1  0
  3  4  1  0
  4  5  2  0
  4  6  1  0
  6  7  1  0
  6  8  1  0
  8  9  1  0
  9 10  2  0
 10 11  1  0
 11 12  2  0
 11 13  1  0
 10 14  1  0
 14 15  1  0
 15 16  1  0
 16 17  2  0
 17 18  1  0
 18 19  2  0
 19 20  1  0
 20 21  2  0
 21 22  1  0
 22 23  2  0
 23 24  1  0
 24 25  2  0
 14 26  1  0
 26 27  2  0
 27 28  1  0
 28 29  2  0
 29 30  1  0
 29 31  1  0
 31 32  2  0
 32  9  1  0
 25 16  1  0
 32 26  1  0
 25 20  1  0
  1 33  1  0
  1 34  1  0
  1 35  1  0
  2 36  1  0
  2 37  1  0
  7 38  1  0
  7 39  1  0
  7 40  1  0
  8 41  1  0
  8 42  1  0
 15 43  1  0
 15 44  1  0
 17 45  1  0
 18 46  1  0
 19 47  1  0
 21 48  1  0
 22 49  1  0
 23 50  1  0
 24 51  1  0
 27 52  1  0
 28 53  1  0
 31 54  1  0
M  CHG  1  13  -1
M  END
>  <meeko>  (150) 
{"free_energy": -5.33, "intermolecular_energy": -7.71, "internal_energy": -1.62, "cluster_size": 29, "cluster_id": 57, "rank_in_cluster": 17}

$$$$

     RDKit          3D

 54 57  0  0  0  0  0  0  0  0999 V2000
    7.3570   38.4490    7.2600 C   0  0  0  0  0  0  0  0  0  0  0  0
    7.2550   37.5220    8.4740 C   0  0  0  0  0  0  0  0  0  0  0  0
    7.8890   38.1350    9.5840 O   0  0  0  0  0  0  0  0  0  0  0  0
    9.2330   38.0940    9.7040 C   0  0  0  0  0  0  0  0  0  0  0  0
    9.9910   38.8570    9.1020 O   0  0  0  0  0  0  0  0  0  0  0  0
    9.6170   37.0840   10.5960 N   0  0  0  0  0  0  0  0  0  0  0  0
   10.9520   36.4770   10.5610 C   0  0  0  0  0  0  0  0  0  0  0  0
    8.6820   36.5590   11.6000 C   0  0  0  0  0  0  0  0  0  0  0  0
    9.2370   36.6490   13.0020 C   0  0  0  0  0  0  0  0  0  0  0  0
    9.9710   37.6710   13.5790 C   0  0  0  0  0  0  0  0  0  0  0  0
   10.3950   38.9840   13.0020 C   0  0  0  0  0  0  0  0  0  0  0  0
    9.7790   40.0170   13.3420 O   0  0  0  0  0  0  0  0  0  0  0  0
   11.3360   39.0450   12.1800 O   0  0  0  0  0  1  0  0  0  0  0  0
   10.3280   37.2890   14.8900 N   0  0  0  0  0  0  0  0  0  0  0  0
   11.0950   38.0470   15.8820 C   0  0  0  0  0  0  0  0  0  0  0  0
   10.5230   38.0090   17.3050 C   0  0  0  0  0  0  0  0  0  0  0  0
    9.2050   38.4570   17.5710 C   0  0  0  0  0  0  0  0  0  0  0  0
    8.6770   38.4230   18.8730 C   0  0  0  0  0  0  0  0  0  0  0  0
    9.4590   37.9430   19.9350 C   0  0  0  0  0  0  0  0  0  0  0  0
   10.7720   37.4940   19.6980 C   0  0  0  0  0  0  0  0  0  0  0  0
   11.5430   37.0150   20.7770 C   0  0  0  0  0  0  0  0  0  0  0  0
   12.8570   36.5620   20.5640 C   0  0  0  0  0  0  0  0  0  0  0  0
   13.4030   36.5860   19.2680 C   0  0  0  0  0  0  0  0  0  0  0  0
   12.6390   37.0640   18.1860 C   0  0  0  0  0  0  0  0  0  0  0  0
   11.3130   37.5240   18.3830 C   0  0  0  0  0  0  0  0  0  0  0  0
    9.8230   36.0220   15.1510 C   0  0  0  0  0  0  0  0  0  0  0  0
    9.9080   35.1920   16.2880 C   0  0  0  0  0  0  0  0  0  0  0  0
    9.2820   33.9340   16.2870 C   0  0  0  0  0  0  0  0  0  0  0  0
    8.5730   33.5110   15.1490 C   0  0  0  0  0  0  0  0  0  0  0  0
    7.9640   32.3010   15.1430 F   0  0  0  0  0  0  0  0  0  0  0  0
    8.4950   34.3430   14.0160 C   0  0  0  0  0  0  0  0  0  0  0  0
    9.1210   35.6130   13.9860 C   0  0  0  0  0  0  0  0  0  0  0  0
    7.4714   39.4885    7.6010 H   0  0  0  0  0  0  0  0  0  0  0  0
    8.2292   38.1641    6.6533 H   0  0  0  0  0  0  0  0  0  0  0  0
    6.4437   38.3605    6.6533 H   0  0  0  0  0  0  0  0  0  0  0  0
    6.1961   37.3398    8.7097 H   0  0  0  0  0  0  0  0  0  0  0  0
    7.7477   36.5644    8.2498 H   0  0  0  0  0  0  0  0  0  0  0  0
   11.3082   36.3150   11.5890 H   0  0  0  0  0  0  0  0  0  0  0  0
   10.9027   35.5128   10.0339 H   0  0  0  0  0  0  0  0  0  0  0  0
   11.6462   37.1480   10.0339 H   0  0  0  0  0  0  0  0  0  0  0  0
    7.7483   37.1385   11.5512 H   0  0  0  0  0  0  0  0  0  0  0  0
    8.5074   35.4966   11.3745 H   0  0  0  0  0  0  0  0  0  0  0  0
   12.1150   37.6363   15.9123 H   0  0  0  0  0  0  0  0  0  0  0  0
   11.0594   39.0990   15.5624 H   0  0  0  0  0  0  0  0  0  0  0  0
    8.5855   38.8373   16.7454 H   0  0  0  0  0  0  0  0  0  0  0  0
    7.6509   38.7726   19.0597 H   0  0  0  0  0  0  0  0  0  0  0  0
    9.0454   37.9176   20.9540 H   0  0  0  0  0  0  0  0  0  0  0  0
   11.1146   36.9956   21.7900 H   0  0  0  0  0  0  0  0  0  0  0  0
   13.4560   36.1900   21.4083 H   0  0  0  0  0  0  0  0  0  0  0  0
   14.4301   36.2302   19.0991 H   0  0  0  0  0  0  0  0  0  0  0  0
   13.0762   37.0806   17.1767 H   0  0  0  0  0  0  0  0  0  0  0  0
   10.4641   35.5292   17.1752 H   0  0  0  0  0  0  0  0  0  0  0  0
    9.3463   33.2836   17.1718 H   0  0  0  0  0  0  0  0  0  0  0  0
    7.9351   33.9988   13.1339 H   0  0  0  0  0  0  0  0  0  0  0  0
  1  2  1  0
  2  3  1  0
  3  4  1  0
  4  5  2  0
  4  6  1  0
  6  7  1  0
  6  8  1  0
  8  9  1  0
  9 10  2  0
 10 11  1  0
 11 12  2  0
 11 13  1  0
 10 14  1  0
 14 15  1  0
 15 16  1  0
 16 17  2  0
 17 18  1  0
 18 19  2  0
 19 20  1  0
 20 21  2  0
 21 22  1  0
 22 23  2  0
 23 24  1  0
 24 25  2  0
 14 26  1  0
 26 27  2  0
 27 28  1  0
 28 29  2  0
 29 30  1  0
 29 31  1  0
 31 32  2  0
 32  9  1  0
 25 16  1  0
 32 26  1  0
 25 20  1  0
  1 33  1  0
  1 34  1  0
  1 35  1  0
  2 36  1  0
  2 37  1  0
  7 38  1  0
  7 39  1  0
  7 40  1  0
  8 41  1  0
  8 42  1  0
 15 43  1  0
 15 44  1  0
 17 45  1  0
 18 46  1  0
 19 47  1  0
 21 48  1  0
 22 49  1  0
 23 50  1  0
 24 51  1  0
 27 52  1  0
 28 53  1  0
 31 54  1  0
M  CHG  1  13  -1
M  END
>  <meeko>  (151) 
{"free_energy": -5.34, "intermolecular_energy": -7.73, "internal_energy": -1.72, "cluster_size": 34, "cluster_id": 135, "rank_in_cluster": 4}

$$$$

     RDKit          3D

 54 57  0  0  0  0  0  0  0  0999 V2000
    7.6970   43.6840   12.4440 C   0  0  0  0  0  0  0  0  0  0  0  0
    8.1990   42.2730   12.1310 C   0  0  0  0  0  0  0  0  0  0  0  0
    9.4340   42.0580   12.7950 O   0  0  0  0  0  0  0  0  0  0  0  0
    9.5120   42.1890   14.1360 C   0  0  0  0  0  0  0  0  0  0  0  0
    8.5310   42.1330   14.8810 O   0  0  0  0  0  0  0  0  0  0  0  0
   10.8400   42.3840   14.5350 N   0  0  0  0  0  0  0  0  0  0  0  0
   11.3620   43.7090   14.8870 C   0  0  0  0  0  0  0  0  0  0  0  0
   11.7910   41.2660   14.5910 C   0  0  0  0  0  0  0  0  0  0  0  0
   11.1650   39.9600   14.1610 C   0  0  0  0  0  0  0  0  0  0  0  0
   11.1480   39.3790   12.9050 C   0  0  0  0  0  0  0  0  0  0  0  0
   11.7670   39.8510   11.6270 C   0  0  0  0  0  0  0  0  0  0  0  0
   12.3720   39.0230   10.9120 O   0  0  0  0  0  0  0  0  0  0  0  0
   11.6960   41.0530   11.2920 O   0  0  0  0  0  1  0  0  0  0  0  0
   10.3900   38.1900   12.9660 N   0  0  0  0  0  0  0  0  0  0  0  0
   10.1040   37.2370   11.8890 C   0  0  0  0  0  0  0  0  0  0  0  0
    9.2820   37.8070   10.7250 C   0  0  0  0  0  0  0  0  0  0  0  0
    9.0070   39.1950   10.6420 C   0  0  0  0  0  0  0  0  0  0  0  0
    8.2550   39.7210    9.5770 C   0  0  0  0  0  0  0  0  0  0  0  0
    7.7620   38.8680    8.5770 C   0  0  0  0  0  0  0  0  0  0  0  0
    8.0200   37.4850    8.6390 C   0  0  0  0  0  0  0  0  0  0  0  0
    7.5160   36.6430    7.6250 C   0  0  0  0  0  0  0  0  0  0  0  0
    7.7610   35.2590    7.6670 C   0  0  0  0  0  0  0  0  0  0  0  0
    8.5130   34.7140    8.7230 C   0  0  0  0  0  0  0  0  0  0  0  0
    9.0180   35.5490    9.7380 C   0  0  0  0  0  0  0  0  0  0  0  0
    8.7800   36.9450    9.7120 C   0  0  0  0  0  0  0  0  0  0  0  0
    9.9220   38.0110   14.2610 C   0  0  0  0  0  0  0  0  0  0  0  0
    9.1190   37.0060   14.8390 C   0  0  0  0  0  0  0  0  0  0  0  0
    8.7970   37.0670   16.2050 C   0  0  0  0  0  0  0  0  0  0  0  0
    9.2790   38.1300   16.9880 C   0  0  0  0  0  0  0  0  0  0  0  0
    8.9750   38.1920   18.3070 F   0  0  0  0  0  0  0  0  0  0  0  0
   10.0770   39.1320   16.4030 C   0  0  0  0  0  0  0  0  0  0  0  0
   10.4130   39.1010   15.0280 C   0  0  0  0  0  0  0  0  0  0  0  0
    7.6478   43.8223   13.5342 H   0  0  0  0  0  0  0  0  0  0  0  0
    8.3873   44.4231   12.0114 H   0  0  0  0  0  0  0  0  0  0  0  0
    6.6949   43.8210   12.0114 H   0  0  0  0  0  0  0  0  0  0  0  0
    7.4613   41.5348   12.4785 H   0  0  0  0  0  0  0  0  0  0  0  0
    8.3397   42.1637   11.0455 H   0  0  0  0  0  0  0  0  0  0  0  0
   11.4013   43.8086   15.9818 H   0  0  0  0  0  0  0  0  0  0  0  0
   12.3737   43.8267   14.4716 H   0  0  0  0  0  0  0  0  0  0  0  0
   10.7024   44.4852   14.4716 H   0  0  0  0  0  0  0  0  0  0  0  0
   12.6383   41.4884   13.9256 H   0  0  0  0  0  0  0  0  0  0  0  0
   12.1192   41.1547   15.6350 H   0  0  0  0  0  0  0  0  0  0  0  0
   11.0627   36.8776   11.4869 H   0  0  0  0  0  0  0  0  0  0  0  0
    9.4937   36.4387   12.3366 H   0  0  0  0  0  0  0  0  0  0  0  0
    9.3876   39.8705   11.4223 H   0  0  0  0  0  0  0  0  0  0  0  0
    8.0529   40.8011    9.5273 H   0  0  0  0  0  0  0  0  0  0  0  0
    7.1735   39.2803    7.7441 H   0  0  0  0  0  0  0  0  0  0  0  0
    6.9293   37.0709    6.7987 H   0  0  0  0  0  0  0  0  0  0  0  0
    7.3656   34.6046    6.8762 H   0  0  0  0  0  0  0  0  0  0  0  0
    8.7073   33.6318    8.7561 H   0  0  0  0  0  0  0  0  0  0  0  0
    9.6038   35.1123   10.5603 H   0  0  0  0  0  0  0  0  0  0  0  0
    8.7455   36.1759   14.2214 H   0  0  0  0  0  0  0  0  0  0  0  0
    8.1701   36.2860   16.6600 H   0  0  0  0  0  0  0  0  0  0  0  0
   10.4477   39.9575   17.0285 H   0  0  0  0  0  0  0  0  0  0  0  0
  1  2  1  0
  2  3  1  0
  3  4  1  0
  4  5  2  0
  4  6  1  0
  6  7  1  0
  6  8  1  0
  8  9  1  0
  9 10  2  0
 10 11  1  0
 11 12  2  0
 11 13  1  0
 10 14  1  0
 14 15  1  0
 15 16  1  0
 16 17  2  0
 17 18  1  0
 18 19  2  0
 19 20  1  0
 20 21  2  0
 21 22  1  0
 22 23  2  0
 23 24  1  0
 24 25  2  0
 14 26  1  0
 26 27  2  0
 27 28  1  0
 28 29  2  0
 29 30  1  0
 29 31  1  0
 31 32  2  0
 32  9  1  0
 25 16  1  0
 32 26  1  0
 25 20  1  0
  1 33  1  0
  1 34  1  0
  1 35  1  0
  2 36  1  0
  2 37  1  0
  7 38  1  0
  7 39  1  0
  7 40  1  0
  8 41  1  0
  8 42  1  0
 15 43  1  0
 15 44  1  0
 17 45  1  0
 18 46  1  0
 19 47  1  0
 21 48  1  0
 22 49  1  0
 23 50  1  0
 24 51  1  0
 27 52  1  0
 28 53  1  0
 31 54  1  0
M  CHG  1  13  -1
M  END
>  <meeko>  (152) 
{"free_energy": -5.97, "intermolecular_energy": -8.36, "internal_energy": -1.95, "cluster_size": 76, "cluster_id": 21, "rank_in_cluster": 28}

$$$$

     RDKit          3D

 54 57  0  0  0  0  0  0  0  0999 V2000
   14.2440   38.8420   13.3340 C   0  0  0  0  0  0  0  0  0  0  0  0
   13.8040   38.8890   14.8000 C   0  0  0  0  0  0  0  0  0  0  0  0
   14.6570   38.0570   15.5700 O   0  0  0  0  0  0  0  0  0  0  0  0
   14.4140   37.8720   16.8850 C   0  0  0  0  0  0  0  0  0  0  0  0
   14.4490   38.7820   17.7150 O   0  0  0  0  0  0  0  0  0  0  0  0
   14.1210   36.5280   17.1470 N   0  0  0  0  0  0  0  0  0  0  0  0
   15.1320   35.4710   17.0300 C   0  0  0  0  0  0  0  0  0  0  0  0
   12.7660   36.1040   17.5260 C   0  0  0  0  0  0  0  0  0  0  0  0
   11.7130   36.6460   16.5880 C   0  0  0  0  0  0  0  0  0  0  0  0
   11.0310   35.9900   15.5790 C   0  0  0  0  0  0  0  0  0  0  0  0
   11.1080   34.5590   15.1490 C   0  0  0  0  0  0  0  0  0  0  0  0
   11.5710   33.7160   15.9470 O   0  0  0  0  0  0  0  0  0  0  0  0
   10.7350   34.2180   14.0050 O   0  0  0  0  0  1  0  0  0  0  0  0
   10.1890   36.9150   14.9250 N   0  0  0  0  0  0  0  0  0  0  0  0
    9.2730   36.6780   13.8050 C   0  0  0  0  0  0  0  0  0  0  0  0
    9.7030   37.3100   12.4750 C   0  0  0  0  0  0  0  0  0  0  0  0
   10.6490   38.3650   12.4450 C   0  0  0  0  0  0  0  0  0  0  0  0
   11.0470   38.9470   11.2280 C   0  0  0  0  0  0  0  0  0  0  0  0
   10.5030   38.4850   10.0190 C   0  0  0  0  0  0  0  0  0  0  0  0
    9.5600   37.4400   10.0230 C   0  0  0  0  0  0  0  0  0  0  0  0
    9.0240   36.9890    8.7980 C   0  0  0  0  0  0  0  0  0  0  0  0
    8.0810   35.9460    8.7780 C   0  0  0  0  0  0  0  0  0  0  0  0
    7.6720   35.3510    9.9840 C   0  0  0  0  0  0  0  0  0  0  0  0
    8.2020   35.7960   11.2100 C   0  0  0  0  0  0  0  0  0  0  0  0
    9.1540   36.8460   11.2490 C   0  0  0  0  0  0  0  0  0  0  0  0
   10.3340   38.1640   15.5150 C   0  0  0  0  0  0  0  0  0  0  0  0
    9.7400   39.4110   15.2330 C   0  0  0  0  0  0  0  0  0  0  0  0
   10.0670   40.5350   16.0110 C   0  0  0  0  0  0  0  0  0  0  0  0
   10.9850   40.4070   17.0680 C   0  0  0  0  0  0  0  0  0  0  0  0
   11.3010   41.4850   17.8240 F   0  0  0  0  0  0  0  0  0  0  0  0
   11.5770   39.1580   17.3410 C   0  0  0  0  0  0  0  0  0  0  0  0
   11.2720   38.0100   16.5710 C   0  0  0  0  0  0  0  0  0  0  0  0
   15.3366   38.7253   13.2827 H   0  0  0  0  0  0  0  0  0  0  0  0
   13.7603   37.9904   12.8331 H   0  0  0  0  0  0  0  0  0  0  0  0
   13.9511   39.7765   12.8331 H   0  0  0  0  0  0  0  0  0  0  0  0
   13.8667   39.9230   15.1700 H   0  0  0  0  0  0  0  0  0  0  0  0
   12.7662   38.5346   14.8859 H   0  0  0  0  0  0  0  0  0  0  0  0
   15.4418   35.1471   18.0346 H   0  0  0  0  0  0  0  0  0  0  0  0
   14.7070   34.6159   16.4839 H   0  0  0  0  0  0  0  0  0  0  0  0
   16.0051   35.8576   16.4839 H   0  0  0  0  0  0  0  0  0  0  0  0
   12.7218   35.0050   17.5106 H   0  0  0  0  0  0  0  0  0  0  0  0
   12.5579   36.5000   18.5309 H   0  0  0  0  0  0  0  0  0  0  0  0
    9.1893   35.5914   13.6559 H   0  0  0  0  0  0  0  0  0  0  0  0
    8.3201   37.1541   14.0793 H   0  0  0  0  0  0  0  0  0  0  0  0
   11.0785   38.7343   13.3880 H   0  0  0  0  0  0  0  0  0  0  0  0
   11.7840   39.7636   11.2235 H   0  0  0  0  0  0  0  0  0  0  0  0
   10.8142   38.9403    9.0672 H   0  0  0  0  0  0  0  0  0  0  0  0
    9.3451   37.4552    7.8549 H   0  0  0  0  0  0  0  0  0  0  0  0
    7.6647   35.5969    7.8215 H   0  0  0  0  0  0  0  0  0  0  0  0
    6.9350   34.5345    9.9698 H   0  0  0  0  0  0  0  0  0  0  0  0
    7.8740   35.3240   12.1479 H   0  0  0  0  0  0  0  0  0  0  0  0
    9.0216   39.5042   14.4052 H   0  0  0  0  0  0  0  0  0  0  0  0
    9.6068   41.5102   15.7938 H   0  0  0  0  0  0  0  0  0  0  0  0
   12.2929   39.0729   18.1718 H   0  0  0  0  0  0  0  0  0  0  0  0
  1  2  1  0
  2  3  1  0
  3  4  1  0
  4  5  2  0
  4  6  1  0
  6  7  1  0
  6  8  1  0
  8  9  1  0
  9 10  2  0
 10 11  1  0
 11 12  2  0
 11 13  1  0
 10 14  1  0
 14 15  1  0
 15 16  1  0
 16 17  2  0
 17 18  1  0
 18 19  2  0
 19 20  1  0
 20 21  2  0
 21 22  1  0
 22 23  2  0
 23 24  1  0
 24 25  2  0
 14 26  1  0
 26 27  2  0
 27 28  1  0
 28 29  2  0
 29 30  1  0
 29 31  1  0
 31 32  2  0
 32  9  1  0
 25 16  1  0
 32 26  1  0
 25 20  1  0
  1 33  1  0
  1 34  1  0
  1 35  1  0
  2 36  1  0
  2 37  1  0
  7 38  1  0
  7 39  1  0
  7 40  1  0
  8 41  1  0
  8 42  1  0
 15 43  1  0
 15 44  1  0
 17 45  1  0
 18 46  1  0
 19 47  1  0
 21 48  1  0
 22 49  1  0
 23 50  1  0
 24 51  1  0
 27 52  1  0
 28 53  1  0
 31 54  1  0
M  CHG  1  13  -1
M  END
>  <meeko>  (153) 
{"free_energy": -4.86, "intermolecular_energy": -7.25, "internal_energy": -2.07, "cluster_size": 3, "cluster_id": 155, "rank_in_cluster": 2}

$$$$

     RDKit          3D

 54 57  0  0  0  0  0  0  0  0999 V2000
    9.5400   40.9250   20.8910 C   0  0  0  0  0  0  0  0  0  0  0  0
   10.3150   39.6290   21.1450 C   0  0  0  0  0  0  0  0  0  0  0  0
   11.4010   39.5490   20.2360 O   0  0  0  0  0  0  0  0  0  0  0  0
   11.3890   38.6280   19.2480 C   0  0  0  0  0  0  0  0  0  0  0  0
   11.3810   37.4130   19.4550 O   0  0  0  0  0  0  0  0  0  0  0  0
   11.3790   39.2520   17.9940 N   0  0  0  0  0  0  0  0  0  0  0  0
   11.9420   40.5900   17.7850 C   0  0  0  0  0  0  0  0  0  0  0  0
   10.7740   38.6020   16.8240 C   0  0  0  0  0  0  0  0  0  0  0  0
    9.8180   37.4990   17.2130 C   0  0  0  0  0  0  0  0  0  0  0  0
    8.7210   37.5600   18.0540 C   0  0  0  0  0  0  0  0  0  0  0  0
    8.1450   38.7300   18.7880 C   0  0  0  0  0  0  0  0  0  0  0  0
    7.6420   38.5420   19.9160 O   0  0  0  0  0  0  0  0  0  0  0  0
    8.1520   39.8700   18.2740 O   0  0  0  0  0  1  0  0  0  0  0  0
    8.1650   36.2680   18.1700 N   0  0  0  0  0  0  0  0  0  0  0  0
    6.9920   35.8470   18.9420 C   0  0  0  0  0  0  0  0  0  0  0  0
    5.6490   36.3550   18.4020 C   0  0  0  0  0  0  0  0  0  0  0  0
    5.3230   36.2270   17.0290 C   0  0  0  0  0  0  0  0  0  0  0  0
    4.0940   36.6910   16.5300 C   0  0  0  0  0  0  0  0  0  0  0  0
    3.1670   37.2930   17.3950 C   0  0  0  0  0  0  0  0  0  0  0  0
    3.4670   37.4340   18.7640 C   0  0  0  0  0  0  0  0  0  0  0  0
    2.5250   38.0420   19.6180 C   0  0  0  0  0  0  0  0  0  0  0  0
    2.8040   38.1920   20.9880 C   0  0  0  0  0  0  0  0  0  0  0  0
    4.0280   37.7340   21.5070 C   0  0  0  0  0  0  0  0  0  0  0  0
    4.9740   37.1270   20.6590 C   0  0  0  0  0  0  0  0  0  0  0  0
    4.7090   36.9660   19.2760 C   0  0  0  0  0  0  0  0  0  0  0  0
    8.9080   35.3790   17.4040 C   0  0  0  0  0  0  0  0  0  0  0  0
    8.7840   33.9910   17.1910 C   0  0  0  0  0  0  0  0  0  0  0  0
    9.6860   33.3290   16.3410 C   0  0  0  0  0  0  0  0  0  0  0  0
   10.7070   34.0580   15.7060 C   0  0  0  0  0  0  0  0  0  0  0  0
   11.5780   33.4270   14.8830 F   0  0  0  0  0  0  0  0  0  0  0  0
   10.8270   35.4430   15.9270 C   0  0  0  0  0  0  0  0  0  0  0  0
    9.9370   36.1370   16.7830 C   0  0  0  0  0  0  0  0  0  0  0  0
    9.2661   41.3830   21.8529 H   0  0  0  0  0  0  0  0  0  0  0  0
   10.1694   41.6225   20.3188 H   0  0  0  0  0  0  0  0  0  0  0  0
    8.6277   40.7006   20.3188 H   0  0  0  0  0  0  0  0  0  0  0  0
   10.6975   39.6252   22.1764 H   0  0  0  0  0  0  0  0  0  0  0  0
    9.6485   38.7657   21.0013 H   0  0  0  0  0  0  0  0  0  0  0  0
   12.1401   41.0607   18.7593 H   0  0  0  0  0  0  0  0  0  0  0  0
   12.8819   40.5081   17.2195 H   0  0  0  0  0  0  0  0  0  0  0  0
   11.2263   41.2047   17.2195 H   0  0  0  0  0  0  0  0  0  0  0  0
   10.2249   39.3580   16.2436 H   0  0  0  0  0  0  0  0  0  0  0  0
   11.5844   38.1523   16.2316 H   0  0  0  0  0  0  0  0  0  0  0  0
    6.9639   34.7474   18.9490 H   0  0  0  0  0  0  0  0  0  0  0  0
    7.1079   36.2852   19.9443 H   0  0  0  0  0  0  0  0  0  0  0  0
    6.0432   35.7571   16.3430 H   0  0  0  0  0  0  0  0  0  0  0  0
    3.8584   36.5824   15.4610 H   0  0  0  0  0  0  0  0  0  0  0  0
    2.2050   37.6551   17.0033 H   0  0  0  0  0  0  0  0  0  0  0  0
    1.5679   38.4005   19.2113 H   0  0  0  0  0  0  0  0  0  0  0  0
    2.0666   38.6665   21.6521 H   0  0  0  0  0  0  0  0  0  0  0  0
    4.2471   37.8503   22.5787 H   0  0  0  0  0  0  0  0  0  0  0  0
    5.9293   36.7738   21.0745 H   0  0  0  0  0  0  0  0  0  0  0  0
    7.9821   33.4269   17.6896 H   0  0  0  0  0  0  0  0  0  0  0  0
    9.5939   32.2458   16.1732 H   0  0  0  0  0  0  0  0  0  0  0  0
   11.6309   35.9995   15.4230 H   0  0  0  0  0  0  0  0  0  0  0  0
  1  2  1  0
  2  3  1  0
  3  4  1  0
  4  5  2  0
  4  6  1  0
  6  7  1  0
  6  8  1  0
  8  9  1  0
  9 10  2  0
 10 11  1  0
 11 12  2  0
 11 13  1  0
 10 14  1  0
 14 15  1  0
 15 16  1  0
 16 17  2  0
 17 18  1  0
 18 19  2  0
 19 20  1  0
 20 21  2  0
 21 22  1  0
 22 23  2  0
 23 24  1  0
 24 25  2  0
 14 26  1  0
 26 27  2  0
 27 28  1  0
 28 29  2  0
 29 30  1  0
 29 31  1  0
 31 32  2  0
 32  9  1  0
 25 16  1  0
 32 26  1  0
 25 20  1  0
  1 33  1  0
  1 34  1  0
  1 35  1  0
  2 36  1  0
  2 37  1  0
  7 38  1  0
  7 39  1  0
  7 40  1  0
  8 41  1  0
  8 42  1  0
 15 43  1  0
 15 44  1  0
 17 45  1  0
 18 46  1  0
 19 47  1  0
 21 48  1  0
 22 49  1  0
 23 50  1  0
 24 51  1  0
 27 52  1  0
 28 53  1  0
 31 54  1  0
M  CHG  1  13  -1
M  END
>  <meeko>  (154) 
{"free_energy": -5.52, "intermolecular_energy": -7.91, "internal_energy": -2.1, "cluster_size": 136, "cluster_id": 17, "rank_in_cluster": 97}

$$$$

     RDKit          3D

 54 57  0  0  0  0  0  0  0  0999 V2000
   11.5070   32.4860   14.4650 C   0  0  0  0  0  0  0  0  0  0  0  0
   11.3210   33.2810   15.7590 C   0  0  0  0  0  0  0  0  0  0  0  0
   10.2840   34.2320   15.5780 O   0  0  0  0  0  0  0  0  0  0  0  0
   10.5480   35.5510   15.6980 C   0  0  0  0  0  0  0  0  0  0  0  0
   11.6870   36.0080   15.8050 O   0  0  0  0  0  0  0  0  0  0  0  0
    9.3600   36.2940   15.6760 N   0  0  0  0  0  0  0  0  0  0  0  0
    8.8600   37.0020   16.8590 C   0  0  0  0  0  0  0  0  0  0  0  0
    8.5360   36.3760   14.4630 C   0  0  0  0  0  0  0  0  0  0  0  0
    9.2190   37.1450   13.3570 C   0  0  0  0  0  0  0  0  0  0  0  0
   10.0230   38.2680   13.4520 C   0  0  0  0  0  0  0  0  0  0  0  0
   10.4750   39.0180   14.6640 C   0  0  0  0  0  0  0  0  0  0  0  0
   11.5310   38.6630   15.2310 O   0  0  0  0  0  0  0  0  0  0  0  0
    9.7990   39.9700   15.1130 O   0  0  0  0  0  1  0  0  0  0  0  0
   10.3860   38.6770   12.1510 N   0  0  0  0  0  0  0  0  0  0  0  0
   11.2330   39.8060   11.7540 C   0  0  0  0  0  0  0  0  0  0  0  0
   12.6650   39.7610   12.3030 C   0  0  0  0  0  0  0  0  0  0  0  0
   13.0760   40.6450   13.3330 C   0  0  0  0  0  0  0  0  0  0  0  0
   14.3870   40.6070   13.8380 C   0  0  0  0  0  0  0  0  0  0  0  0
   15.3120   39.6870   13.3220 C   0  0  0  0  0  0  0  0  0  0  0  0
   14.9290   38.8000   12.2980 C   0  0  0  0  0  0  0  0  0  0  0  0
   15.8720   37.8820   11.7910 C   0  0  0  0  0  0  0  0  0  0  0  0
   15.5120   36.9870   10.7680 C   0  0  0  0  0  0  0  0  0  0  0  0
   14.2050   37.0080   10.2500 C   0  0  0  0  0  0  0  0  0  0  0  0
   13.2590   37.9230   10.7510 C   0  0  0  0  0  0  0  0  0  0  0  0
   13.6050   38.8310   11.7820 C   0  0  0  0  0  0  0  0  0  0  0  0
    9.8120   37.8170   11.2230 C   0  0  0  0  0  0  0  0  0  0  0  0
    9.8510   37.7940    9.8140 C   0  0  0  0  0  0  0  0  0  0  0  0
    9.1730   36.7830    9.1110 C   0  0  0  0  0  0  0  0  0  0  0  0
    8.4620   35.7990    9.8190 C   0  0  0  0  0  0  0  0  0  0  0  0
    7.8100   34.8200    9.1480 F   0  0  0  0  0  0  0  0  0  0  0  0
    8.4250   35.8310   11.2270 C   0  0  0  0  0  0  0  0  0  0  0  0
    9.0920   36.8410   11.9620 C   0  0  0  0  0  0  0  0  0  0  0  0
   11.7514   31.4415   14.7083 H   0  0  0  0  0  0  0  0  0  0  0  0
   10.5771   32.5179   13.8782 H   0  0  0  0  0  0  0  0  0  0  0  0
   12.3262   32.9271   13.8782 H   0  0  0  0  0  0  0  0  0  0  0  0
   11.0528   32.5955   16.5765 H   0  0  0  0  0  0  0  0  0  0  0  0
   12.2576   33.7996   16.0117 H   0  0  0  0  0  0  0  0  0  0  0  0
    9.2176   36.4957   17.7677 H   0  0  0  0  0  0  0  0  0  0  0  0
    9.2273   38.0388   16.8483 H   0  0  0  0  0  0  0  0  0  0  0  0
    7.7601   37.0026   16.8483 H   0  0  0  0  0  0  0  0  0  0  0  0
    8.3269   35.3561   14.1078 H   0  0  0  0  0  0  0  0  0  0  0  0
    7.6093   36.9094   14.7211 H   0  0  0  0  0  0  0  0  0  0  0  0
   11.2881   39.8226   10.6555 H   0  0  0  0  0  0  0  0  0  0  0  0
   10.7668   40.7071   12.1791 H   0  0  0  0  0  0  0  0  0  0  0  0
   12.3582   41.3710   13.7426 H   0  0  0  0  0  0  0  0  0  0  0  0
   14.6880   41.2990   14.6383 H   0  0  0  0  0  0  0  0  0  0  0  0
   16.3378   39.6587   13.7180 H   0  0  0  0  0  0  0  0  0  0  0  0
   16.8939   37.8661   12.1978 H   0  0  0  0  0  0  0  0  0  0  0  0
   16.2503   36.2729   10.3743 H   0  0  0  0  0  0  0  0  0  0  0  0
   13.9206   36.3076    9.4510 H   0  0  0  0  0  0  0  0  0  0  0  0
   12.2399   37.9328   10.3371 H   0  0  0  0  0  0  0  0  0  0  0  0
   10.4110   38.5658    9.2656 H   0  0  0  0  0  0  0  0  0  0  0  0
    9.1988   36.7622    8.0115 H   0  0  0  0  0  0  0  0  0  0  0  0
    7.8652   35.0537   11.7677 H   0  0  0  0  0  0  0  0  0  0  0  0
  1  2  1  0
  2  3  1  0
  3  4  1  0
  4  5  2  0
  4  6  1  0
  6  7  1  0
  6  8  1  0
  8  9  1  0
  9 10  2  0
 10 11  1  0
 11 12  2  0
 11 13  1  0
 10 14  1  0
 14 15  1  0
 15 16  1  0
 16 17  2  0
 17 18  1  0
 18 19  2  0
 19 20  1  0
 20 21  2  0
 21 22  1  0
 22 23  2  0
 23 24  1  0
 24 25  2  0
 14 26  1  0
 26 27  2  0
 27 28  1  0
 28 29  2  0
 29 30  1  0
 29 31  1  0
 31 32  2  0
 32  9  1  0
 25 16  1  0
 32 26  1  0
 25 20  1  0
  1 33  1  0
  1 34  1  0
  1 35  1  0
  2 36  1  0
  2 37  1  0
  7 38  1  0
  7 39  1  0
  7 40  1  0
  8 41  1  0
  8 42  1  0
 15 43  1  0
 15 44  1  0
 17 45  1  0
 18 46  1  0
 19 47  1  0
 21 48  1  0
 22 49  1  0
 23 50  1  0
 24 51  1  0
 27 52  1  0
 28 53  1  0
 31 54  1  0
M  CHG  1  13  -1
M  END
>  <meeko>  (155) 
{"free_energy": -5.34, "intermolecular_energy": -7.72, "internal_energy": -2.13, "cluster_size": 251, "cluster_id": 26, "rank_in_cluster": 185}

$$$$

     RDKit          3D

 54 57  0  0  0  0  0  0  0  0999 V2000
   19.0260   40.1060   10.8940 C   0  0  0  0  0  0  0  0  0  0  0  0
   19.5570   40.3330    9.4770 C   0  0  0  0  0  0  0  0  0  0  0  0
   18.5700   41.0040    8.7100 O   0  0  0  0  0  0  0  0  0  0  0  0
   18.6730   41.0500    7.3650 C   0  0  0  0  0  0  0  0  0  0  0  0
   19.7240   40.8350    6.7580 O   0  0  0  0  0  0  0  0  0  0  0  0
   17.4360   41.3630    6.7870 N   0  0  0  0  0  0  0  0  0  0  0  0
   17.1080   42.7190    6.3330 C   0  0  0  0  0  0  0  0  0  0  0  0
   16.3870   40.3460    6.6340 C   0  0  0  0  0  0  0  0  0  0  0  0
   15.2080   40.5980    7.5430 C   0  0  0  0  0  0  0  0  0  0  0  0
   14.8420   39.9230    8.6950 C   0  0  0  0  0  0  0  0  0  0  0  0
   15.5180   38.7830    9.3880 C   0  0  0  0  0  0  0  0  0  0  0  0
   16.3670   39.0340   10.2690 O   0  0  0  0  0  0  0  0  0  0  0  0
   15.2520   37.6010    9.0770 O   0  0  0  0  0  1  0  0  0  0  0  0
   13.6320   40.4690    9.1760 N   0  0  0  0  0  0  0  0  0  0  0  0
   12.8710   40.0850   10.3680 C   0  0  0  0  0  0  0  0  0  0  0  0
   11.3690   39.8760   10.1340 C   0  0  0  0  0  0  0  0  0  0  0  0
   10.9010   38.8070    9.3310 C   0  0  0  0  0  0  0  0  0  0  0  0
    9.5260   38.6120    9.1140 C   0  0  0  0  0  0  0  0  0  0  0  0
    8.5930   39.4840    9.6960 C   0  0  0  0  0  0  0  0  0  0  0  0
    9.0320   40.5550   10.4970 C   0  0  0  0  0  0  0  0  0  0  0  0
    8.0810   41.4220   11.0730 C   0  0  0  0  0  0  0  0  0  0  0  0
    8.4970   42.4990   11.8760 C   0  0  0  0  0  0  0  0  0  0  0  0
    9.8680   42.7100   12.1050 C   0  0  0  0  0  0  0  0  0  0  0  0
   10.8240   41.8490   11.5330 C   0  0  0  0  0  0  0  0  0  0  0  0
   10.4220   40.7590   10.7210 C   0  0  0  0  0  0  0  0  0  0  0  0
   13.2240   41.4930    8.3310 C   0  0  0  0  0  0  0  0  0  0  0  0
   12.0940   42.3360    8.3540 C   0  0  0  0  0  0  0  0  0  0  0  0
   11.9290   43.3150    7.3600 C   0  0  0  0  0  0  0  0  0  0  0  0
   12.8950   43.4480    6.3470 C   0  0  0  0  0  0  0  0  0  0  0  0
   12.7440   44.3910    5.3870 F   0  0  0  0  0  0  0  0  0  0  0  0
   14.0190   42.5990    6.3280 C   0  0  0  0  0  0  0  0  0  0  0  0
   14.2090   41.6000    7.3120 C   0  0  0  0  0  0  0  0  0  0  0  0
   19.7818   40.4291   11.6249 H   0  0  0  0  0  0  0  0  0  0  0  0
   18.1042   40.6887   11.0379 H   0  0  0  0  0  0  0  0  0  0  0  0
   18.8103   39.0370   11.0379 H   0  0  0  0  0  0  0  0  0  0  0  0
   20.4692   40.9463    9.5199 H   0  0  0  0  0  0  0  0  0  0  0  0
   19.7914   39.3645    9.0110 H   0  0  0  0  0  0  0  0  0  0  0  0
   16.9506   43.3698    7.2057 H   0  0  0  0  0  0  0  0  0  0  0  0
   17.9367   43.1131    5.7264 H   0  0  0  0  0  0  0  0  0  0  0  0
   16.1908   42.6908    5.7264 H   0  0  0  0  0  0  0  0  0  0  0  0
   16.0374   40.3525    5.5911 H   0  0  0  0  0  0  0  0  0  0  0  0
   16.8200   39.3722    6.9064 H   0  0  0  0  0  0  0  0  0  0  0  0
   13.2912   39.1444   10.7537 H   0  0  0  0  0  0  0  0  0  0  0  0
   12.9602   40.9230   11.0750 H   0  0  0  0  0  0  0  0  0  0  0  0
   11.6249   38.1188    8.8701 H   0  0  0  0  0  0  0  0  0  0  0  0
    9.1812   37.7758    8.4879 H   0  0  0  0  0  0  0  0  0  0  0  0
    7.5171   39.3303    9.5260 H   0  0  0  0  0  0  0  0  0  0  0  0
    7.0086   41.2552   10.8935 H   0  0  0  0  0  0  0  0  0  0  0  0
    7.7524   43.1739   12.3233 H   0  0  0  0  0  0  0  0  0  0  0  0
   10.1952   43.5513   12.7337 H   0  0  0  0  0  0  0  0  0  0  0  0
   11.8941   42.0241   11.7182 H   0  0  0  0  0  0  0  0  0  0  0  0
   11.3422   42.2272    9.1496 H   0  0  0  0  0  0  0  0  0  0  0  0
   11.0485   43.9742    7.3741 H   0  0  0  0  0  0  0  0  0  0  0  0
   14.7665   42.7154    5.5295 H   0  0  0  0  0  0  0  0  0  0  0  0
  1  2  1  0
  2  3  1  0
  3  4  1  0
  4  5  2  0
  4  6  1  0
  6  7  1  0
  6  8  1  0
  8  9  1  0
  9 10  2  0
 10 11  1  0
 11 12  2  0
 11 13  1  0
 10 14  1  0
 14 15  1  0
 15 16  1  0
 16 17  2  0
 17 18  1  0
 18 19  2  0
 19 20  1  0
 20 21  2  0
 21 22  1  0
 22 23  2  0
 23 24  1  0
 24 25  2  0
 14 26  1  0
 26 27  2  0
 27 28  1  0
 28 29  2  0
 29 30  1  0
 29 31  1  0
 31 32  2  0
 32  9  1  0
 25 16  1  0
 32 26  1  0
 25 20  1  0
  1 33  1  0
  1 34  1  0
  1 35  1  0
  2 36  1  0
  2 37  1  0
  7 38  1  0
  7 39  1  0
  7 40  1  0
  8 41  1  0
  8 42  1  0
 15 43  1  0
 15 44  1  0
 17 45  1  0
 18 46  1  0
 19 47  1  0
 21 48  1  0
 22 49  1  0
 23 50  1  0
 24 51  1  0
 27 52  1  0
 28 53  1  0
 31 54  1  0
M  CHG  1  13  -1
M  END
>  <meeko>  (156) 
{"free_energy": -5.56, "intermolecular_energy": -7.94, "internal_energy": -1.8, "cluster_size": 45, "cluster_id": 28, "rank_in_cluster": 13}

$$$$

     RDKit          3D

 54 57  0  0  0  0  0  0  0  0999 V2000
   12.0740   42.1230   15.2520 C   0  0  0  0  0  0  0  0  0  0  0  0
   13.1340   41.0960   15.6570 C   0  0  0  0  0  0  0  0  0  0  0  0
   13.7720   40.5980   14.4930 O   0  0  0  0  0  0  0  0  0  0  0  0
   13.0350   40.2290   13.4230 C   0  0  0  0  0  0  0  0  0  0  0  0
   12.0560   39.4840   13.4990 O   0  0  0  0  0  0  0  0  0  0  0  0
   13.5400   40.8120   12.2540 N   0  0  0  0  0  0  0  0  0  0  0  0
   14.8100   40.3870   11.6550 C   0  0  0  0  0  0  0  0  0  0  0  0
   12.8290   41.9070   11.5800 C   0  0  0  0  0  0  0  0  0  0  0  0
   11.4090   41.5340   11.2250 C   0  0  0  0  0  0  0  0  0  0  0  0
   10.9630   40.5840   10.3230 C   0  0  0  0  0  0  0  0  0  0  0  0
   11.7450   39.6350    9.4710 C   0  0  0  0  0  0  0  0  0  0  0  0
   12.9930   39.6710    9.5240 O   0  0  0  0  0  0  0  0  0  0  0  0
   11.1610   38.8350    8.7080 O   0  0  0  0  0  1  0  0  0  0  0  0
    9.5530   40.6310   10.2740 N   0  0  0  0  0  0  0  0  0  0  0  0
    8.6410   39.8090    9.4740 C   0  0  0  0  0  0  0  0  0  0  0  0
    8.7680   38.2960    9.7020 C   0  0  0  0  0  0  0  0  0  0  0  0
    8.5650   37.3820    8.6380 C   0  0  0  0  0  0  0  0  0  0  0  0
    8.6800   35.9960    8.8430 C   0  0  0  0  0  0  0  0  0  0  0  0
    8.9970   35.4990   10.1170 C   0  0  0  0  0  0  0  0  0  0  0  0
    9.2010   36.3860   11.1910 C   0  0  0  0  0  0  0  0  0  0  0  0
    9.5190   35.8690   12.4630 C   0  0  0  0  0  0  0  0  0  0  0  0
    9.7260   36.7370   13.5500 C   0  0  0  0  0  0  0  0  0  0  0  0
    9.6170   38.1270   13.3650 C   0  0  0  0  0  0  0  0  0  0  0  0
    9.3000   38.6500   12.0970 C   0  0  0  0  0  0  0  0  0  0  0  0
    9.0880   37.7900   10.9910 C   0  0  0  0  0  0  0  0  0  0  0  0
    9.0970   41.6120   11.1460 C   0  0  0  0  0  0  0  0  0  0  0  0
    7.7980   42.0620   11.4570 C   0  0  0  0  0  0  0  0  0  0  0  0
    7.6190   43.0850   12.4030 C   0  0  0  0  0  0  0  0  0  0  0  0
    8.7380   43.6530   13.0350 C   0  0  0  0  0  0  0  0  0  0  0  0
    8.5720   44.6370   13.9510 F   0  0  0  0  0  0  0  0  0  0  0  0
   10.0330   43.2000   12.7170 C   0  0  0  0  0  0  0  0  0  0  0  0
   10.2460   42.1760   11.7630 C   0  0  0  0  0  0  0  0  0  0  0  0
   11.6230   42.5600   16.1551 H   0  0  0  0  0  0  0  0  0  0  0  0
   12.5436   42.9186   14.6549 H   0  0  0  0  0  0  0  0  0  0  0  0
   11.2936   41.6285   14.6549 H   0  0  0  0  0  0  0  0  0  0  0  0
   13.8798   41.5749   16.3085 H   0  0  0  0  0  0  0  0  0  0  0  0
   12.6558   40.2667   16.1988 H   0  0  0  0  0  0  0  0  0  0  0  0
   15.5290   40.1464   12.4520 H   0  0  0  0  0  0  0  0  0  0  0  0
   14.6416   39.4962   11.0319 H   0  0  0  0  0  0  0  0  0  0  0  0
   15.2117   41.1997   11.0319 H   0  0  0  0  0  0  0  0  0  0  0  0
   12.8090   42.7804   12.2484 H   0  0  0  0  0  0  0  0  0  0  0  0
   13.3628   42.1300   10.6444 H   0  0  0  0  0  0  0  0  0  0  0  0
    7.6102   40.1061    9.7174 H   0  0  0  0  0  0  0  0  0  0  0  0
    8.9076   39.9864    8.4216 H   0  0  0  0  0  0  0  0  0  0  0  0
    8.3138   37.7627    7.6370 H   0  0  0  0  0  0  0  0  0  0  0  0
    8.5216   35.3010    8.0052 H   0  0  0  0  0  0  0  0  0  0  0  0
    9.0862   34.4143   10.2764 H   0  0  0  0  0  0  0  0  0  0  0  0
    9.6057   34.7818   12.6062 H   0  0  0  0  0  0  0  0  0  0  0  0
    9.9724   36.3301   14.5418 H   0  0  0  0  0  0  0  0  0  0  0  0
    9.7799   38.8075   14.2137 H   0  0  0  0  0  0  0  0  0  0  0  0
    9.2159   39.7386   11.9633 H   0  0  0  0  0  0  0  0  0  0  0  0
    6.9257   41.6128   10.9597 H   0  0  0  0  0  0  0  0  0  0  0  0
    6.6070   43.4399   12.6479 H   0  0  0  0  0  0  0  0  0  0  0  0
   10.8993   43.6525   13.2217 H   0  0  0  0  0  0  0  0  0  0  0  0
  1  2  1  0
  2  3  1  0
  3  4  1  0
  4  5  2  0
  4  6  1  0
  6  7  1  0
  6  8  1  0
  8  9  1  0
  9 10  2  0
 10 11  1  0
 11 12  2  0
 11 13  1  0
 10 14  1  0
 14 15  1  0
 15 16  1  0
 16 17  2  0
 17 18  1  0
 18 19  2  0
 19 20  1  0
 20 21  2  0
 21 22  1  0
 22 23  2  0
 23 24  1  0
 24 25  2  0
 14 26  1  0
 26 27  2  0
 27 28  1  0
 28 29  2  0
 29 30  1  0
 29 31  1  0
 31 32  2  0
 32  9  1  0
 25 16  1  0
 32 26  1  0
 25 20  1  0
  1 33  1  0
  1 34  1  0
  1 35  1  0
  2 36  1  0
  2 37  1  0
  7 38  1  0
  7 39  1  0
  7 40  1  0
  8 41  1  0
  8 42  1  0
 15 43  1  0
 15 44  1  0
 17 45  1  0
 18 46  1  0
 19 47  1  0
 21 48  1  0
 22 49  1  0
 23 50  1  0
 24 51  1  0
 27 52  1  0
 28 53  1  0
 31 54  1  0
M  CHG  1  13  -1
M  END
>  <meeko>  (157) 
{"free_energy": -5.28, "intermolecular_energy": -7.67, "internal_energy": -2.05, "cluster_size": 417, "cluster_id": 2, "rank_in_cluster": 360}

$$$$

     RDKit          3D

 54 57  0  0  0  0  0  0  0  0999 V2000
   15.5980   38.4360   17.1620 C   0  0  0  0  0  0  0  0  0  0  0  0
   14.5210   39.3800   16.6230 C   0  0  0  0  0  0  0  0  0  0  0  0
   15.1420   40.5130   16.0380 O   0  0  0  0  0  0  0  0  0  0  0  0
   15.3880   40.5400   14.7110 C   0  0  0  0  0  0  0  0  0  0  0  0
   16.4820   40.8400   14.2300 O   0  0  0  0  0  0  0  0  0  0  0  0
   14.2410   40.1800   13.9920 N   0  0  0  0  0  0  0  0  0  0  0  0
   14.0470   38.8270   13.4590 C   0  0  0  0  0  0  0  0  0  0  0  0
   13.1810   41.1560   13.7090 C   0  0  0  0  0  0  0  0  0  0  0  0
   12.2970   40.7250   12.5620 C   0  0  0  0  0  0  0  0  0  0  0  0
   10.9330   40.4890   12.5610 C   0  0  0  0  0  0  0  0  0  0  0  0
    9.9410   40.6240   13.6730 C   0  0  0  0  0  0  0  0  0  0  0  0
    9.3190   39.6070   14.0490 O   0  0  0  0  0  0  0  0  0  0  0  0
    9.7240   41.7360   14.2010 O   0  0  0  0  0  1  0  0  0  0  0  0
   10.5510   40.0420   11.2780 N   0  0  0  0  0  0  0  0  0  0  0  0
    9.2130   39.6800   10.8010 C   0  0  0  0  0  0  0  0  0  0  0  0
    9.0730   38.2330   10.3110 C   0  0  0  0  0  0  0  0  0  0  0  0
    9.6460   37.1610   11.0390 C   0  0  0  0  0  0  0  0  0  0  0  0
    9.5200   35.8340   10.5940 C   0  0  0  0  0  0  0  0  0  0  0  0
    8.8190   35.5540    9.4100 C   0  0  0  0  0  0  0  0  0  0  0  0
    8.2420   36.6020    8.6680 C   0  0  0  0  0  0  0  0  0  0  0  0
    7.5420   36.3020    7.4810 C   0  0  0  0  0  0  0  0  0  0  0  0
    6.9580   37.3330    6.7230 C   0  0  0  0  0  0  0  0  0  0  0  0
    7.0720   38.6670    7.1520 C   0  0  0  0  0  0  0  0  0  0  0  0
    7.7700   38.9730    8.3360 C   0  0  0  0  0  0  0  0  0  0  0  0
    8.3640   37.9470    9.1120 C   0  0  0  0  0  0  0  0  0  0  0  0
   11.6710   39.9930   10.4580 C   0  0  0  0  0  0  0  0  0  0  0  0
   11.8330   39.6060    9.1120 C   0  0  0  0  0  0  0  0  0  0  0  0
   13.1030   39.6620    8.5150 C   0  0  0  0  0  0  0  0  0  0  0  0
   14.2060   40.1060    9.2650 C   0  0  0  0  0  0  0  0  0  0  0  0
   15.4330   40.1660    8.6950 F   0  0  0  0  0  0  0  0  0  0  0  0
   14.0370   40.4860   10.6100 C   0  0  0  0  0  0  0  0  0  0  0  0
   12.7700   40.4340   11.2410 C   0  0  0  0  0  0  0  0  0  0  0  0
   15.5814   38.4506   18.2618 H   0  0  0  0  0  0  0  0  0  0  0  0
   15.4014   37.4140   16.8058 H   0  0  0  0  0  0  0  0  0  0  0  0
   16.5854   38.7648   16.8058 H   0  0  0  0  0  0  0  0  0  0  0  0
   13.9203   38.8573   15.8641 H   0  0  0  0  0  0  0  0  0  0  0  0
   13.8670   39.7021   17.4467 H   0  0  0  0  0  0  0  0  0  0  0  0
   13.9450   38.1159   14.2920 H   0  0  0  0  0  0  0  0  0  0  0  0
   13.1362   38.8028   12.8427 H   0  0  0  0  0  0  0  0  0  0  0  0
   14.9143   38.5479   12.8427 H   0  0  0  0  0  0  0  0  0  0  0  0
   12.5600   41.2749   14.6091 H   0  0  0  0  0  0  0  0  0  0  0  0
   13.6625   42.1035   13.4255 H   0  0  0  0  0  0  0  0  0  0  0  0
    8.5028   39.8315   11.6273 H   0  0  0  0  0  0  0  0  0  0  0  0
    9.0109   40.3219    9.9309 H   0  0  0  0  0  0  0  0  0  0  0  0
   10.1981   37.3707   11.9670 H   0  0  0  0  0  0  0  0  0  0  0  0
    9.9706   35.0146   11.1732 H   0  0  0  0  0  0  0  0  0  0  0  0
    8.7206   34.5151    9.0620 H   0  0  0  0  0  0  0  0  0  0  0  0
    7.4524   35.2579    7.1467 H   0  0  0  0  0  0  0  0  0  0  0  0
    6.4135   37.0961    5.7970 H   0  0  0  0  0  0  0  0  0  0  0  0
    6.6146   39.4741    6.5609 H   0  0  0  0  0  0  0  0  0  0  0  0
    7.8551   40.0201    8.6621 H   0  0  0  0  0  0  0  0  0  0  0  0
   10.9657   39.2606    8.5301 H   0  0  0  0  0  0  0  0  0  0  0  0
   13.2340   39.3599    7.4655 H   0  0  0  0  0  0  0  0  0  0  0  0
   14.9093   40.8314   11.1843 H   0  0  0  0  0  0  0  0  0  0  0  0
  1  2  1  0
  2  3  1  0
  3  4  1  0
  4  5  2  0
  4  6  1  0
  6  7  1  0
  6  8  1  0
  8  9  1  0
  9 10  2  0
 10 11  1  0
 11 12  2  0
 11 13  1  0
 10 14  1  0
 14 15  1  0
 15 16  1  0
 16 17  2  0
 17 18  1  0
 18 19  2  0
 19 20  1  0
 20 21  2  0
 21 22  1  0
 22 23  2  0
 23 24  1  0
 24 25  2  0
 14 26  1  0
 26 27  2  0
 27 28  1  0
 28 29  2  0
 29 30  1  0
 29 31  1  0
 31 32  2  0
 32  9  1  0
 25 16  1  0
 32 26  1  0
 25 20  1  0
  1 33  1  0
  1 34  1  0
  1 35  1  0
  2 36  1  0
  2 37  1  0
  7 38  1  0
  7 39  1  0
  7 40  1  0
  8 41  1  0
  8 42  1  0
 15 43  1  0
 15 44  1  0
 17 45  1  0
 18 46  1  0
 19 47  1  0
 21 48  1  0
 22 49  1  0
 23 50  1  0
 24 51  1  0
 27 52  1  0
 28 53  1  0
 31 54  1  0
M  CHG  1  13  -1
M  END
>  <meeko>  (158) 
{"free_energy": -5.68, "intermolecular_energy": -8.06, "internal_energy": -1.64, "cluster_size": 167, "cluster_id": 22, "rank_in_cluster": 79}

$$$$

     RDKit          3D

 54 57  0  0  0  0  0  0  0  0999 V2000
   11.5080   32.7560   14.7450 C   0  0  0  0  0  0  0  0  0  0  0  0
   10.3190   33.2290   15.5850 C   0  0  0  0  0  0  0  0  0  0  0  0
    9.7650   34.3940   14.9960 O   0  0  0  0  0  0  0  0  0  0  0  0
   10.4210   35.5710   15.0780 C   0  0  0  0  0  0  0  0  0  0  0  0
   11.3820   35.7610   15.8260 O   0  0  0  0  0  0  0  0  0  0  0  0
    9.8600   36.5090   14.2020 N   0  0  0  0  0  0  0  0  0  0  0  0
    8.7680   37.4000   14.6090 C   0  0  0  0  0  0  0  0  0  0  0  0
   10.3220   36.6260   12.8120 C   0  0  0  0  0  0  0  0  0  0  0  0
   10.0970   38.0100   12.2490 C   0  0  0  0  0  0  0  0  0  0  0  0
   10.4490   39.2330   12.7910 C   0  0  0  0  0  0  0  0  0  0  0  0
   11.1780   39.5400   14.0610 C   0  0  0  0  0  0  0  0  0  0  0  0
   10.5150   39.8450   15.0760 O   0  0  0  0  0  0  0  0  0  0  0  0
   12.4270   39.5110   14.1010 O   0  0  0  0  0  1  0  0  0  0  0  0
    9.9790   40.2580   11.9420 N   0  0  0  0  0  0  0  0  0  0  0  0
   10.1240   41.7080   12.0990 C   0  0  0  0  0  0  0  0  0  0  0  0
    8.8680   42.4310   12.6030 C   0  0  0  0  0  0  0  0  0  0  0  0
    7.7580   42.6410   11.7460 C   0  0  0  0  0  0  0  0  0  0  0  0
    6.6060   43.3030   12.2040 C   0  0  0  0  0  0  0  0  0  0  0  0
    6.5410   43.7680   13.5270 C   0  0  0  0  0  0  0  0  0  0  0  0
    7.6310   43.5720   14.3970 C   0  0  0  0  0  0  0  0  0  0  0  0
    7.5490   44.0470   15.7230 C   0  0  0  0  0  0  0  0  0  0  0  0
    8.6260   43.8630   16.6090 C   0  0  0  0  0  0  0  0  0  0  0  0
    9.7870   43.2030   16.1700 C   0  0  0  0  0  0  0  0  0  0  0  0
    9.8750   42.7270   14.8480 C   0  0  0  0  0  0  0  0  0  0  0  0
    8.8000   42.9040   13.9420 C   0  0  0  0  0  0  0  0  0  0  0  0
    9.3260   39.6890   10.8560 C   0  0  0  0  0  0  0  0  0  0  0  0
    8.6740   40.2640    9.7460 C   0  0  0  0  0  0  0  0  0  0  0  0
    8.0920   39.4370    8.7700 C   0  0  0  0  0  0  0  0  0  0  0  0
    8.1660   38.0400    8.9070 C   0  0  0  0  0  0  0  0  0  0  0  0
    7.6110   37.2380    7.9670 F   0  0  0  0  0  0  0  0  0  0  0  0
    8.8160   37.4740   10.0200 C   0  0  0  0  0  0  0  0  0  0  0  0
    9.4050   38.2810   11.0230 C   0  0  0  0  0  0  0  0  0  0  0  0
   12.3216   32.4323   15.4108 H   0  0  0  0  0  0  0  0  0  0  0  0
   11.1964   31.9133   14.1103 H   0  0  0  0  0  0  0  0  0  0  0  0
   11.8604   33.5824   14.1103 H   0  0  0  0  0  0  0  0  0  0  0  0
    9.5564   32.4371   15.6215 H   0  0  0  0  0  0  0  0  0  0  0  0
   10.6563   33.4567   16.6070 H   0  0  0  0  0  0  0  0  0  0  0  0
    8.7180   37.4408   15.7071 H   0  0  0  0  0  0  0  0  0  0  0  0
    8.9514   38.4096   14.2125 H   0  0  0  0  0  0  0  0  0  0  0  0
    7.8158   37.0178   14.2125 H   0  0  0  0  0  0  0  0  0  0  0  0
   11.3979   36.3999   12.7763 H   0  0  0  0  0  0  0  0  0  0  0  0
    9.7427   35.9161   12.2033 H   0  0  0  0  0  0  0  0  0  0  0  0
   10.9369   41.8946   12.8162 H   0  0  0  0  0  0  0  0  0  0  0  0
   10.3292   42.1085   11.0952 H   0  0  0  0  0  0  0  0  0  0  0  0
    7.7992   42.2805   10.7076 H   0  0  0  0  0  0  0  0  0  0  0  0
    5.7543   43.4570   11.5251 H   0  0  0  0  0  0  0  0  0  0  0  0
    5.6385   44.2856   13.8842 H   0  0  0  0  0  0  0  0  0  0  0  0
    6.6398   44.5630   16.0651 H   0  0  0  0  0  0  0  0  0  0  0  0
    8.5599   44.2344   17.6423 H   0  0  0  0  0  0  0  0  0  0  0  0
   10.6297   43.0580   16.8619 H   0  0  0  0  0  0  0  0  0  0  0  0
   10.7882   42.2121   14.5148 H   0  0  0  0  0  0  0  0  0  0  0  0
    8.6209   41.3580    9.6441 H   0  0  0  0  0  0  0  0  0  0  0  0
    7.5810   39.8809    7.9029 H   0  0  0  0  0  0  0  0  0  0  0  0
    8.8675   36.3791   10.1125 H   0  0  0  0  0  0  0  0  0  0  0  0
  1  2  1  0
  2  3  1  0
  3  4  1  0
  4  5  2  0
  4  6  1  0
  6  7  1  0
  6  8  1  0
  8  9  1  0
  9 10  2  0
 10 11  1  0
 11 12  2  0
 11 13  1  0
 10 14  1  0
 14 15  1  0
 15 16  1  0
 16 17  2  0
 17 18  1  0
 18 19  2  0
 19 20  1  0
 20 21  2  0
 21 22  1  0
 22 23  2  0
 23 24  1  0
 24 25  2  0
 14 26  1  0
 26 27  2  0
 27 28  1  0
 28 29  2  0
 29 30  1  0
 29 31  1  0
 31 32  2  0
 32  9  1  0
 25 16  1  0
 32 26  1  0
 25 20  1  0
  1 33  1  0
  1 34  1  0
  1 35  1  0
  2 36  1  0
  2 37  1  0
  7 38  1  0
  7 39  1  0
  7 40  1  0
  8 41  1  0
  8 42  1  0
 15 43  1  0
 15 44  1  0
 17 45  1  0
 18 46  1  0
 19 47  1  0
 21 48  1  0
 22 49  1  0
 23 50  1  0
 24 51  1  0
 27 52  1  0
 28 53  1  0
 31 54  1  0
M  CHG  1  13  -1
M  END
>  <meeko>  (159) 
{"free_energy": -5.51, "intermolecular_energy": -7.89, "internal_energy": -1.74, "cluster_size": 35, "cluster_id": 50, "rank_in_cluster": 15}

$$$$

     RDKit          3D

 54 57  0  0  0  0  0  0  0  0999 V2000
   11.7130   42.5070   17.9950 C   0  0  0  0  0  0  0  0  0  0  0  0
   11.8350   42.9060   16.5220 C   0  0  0  0  0  0  0  0  0  0  0  0
   11.0620   42.0160   15.7320 O   0  0  0  0  0  0  0  0  0  0  0  0
   10.9980   40.7070   16.0540 C   0  0  0  0  0  0  0  0  0  0  0  0
   10.0790   40.2150   16.7110 O   0  0  0  0  0  0  0  0  0  0  0  0
   12.1010   40.0180   15.5350 N   0  0  0  0  0  0  0  0  0  0  0  0
   12.6960   38.8660   16.2220 C   0  0  0  0  0  0  0  0  0  0  0  0
   12.7390   40.4370   14.2800 C   0  0  0  0  0  0  0  0  0  0  0  0
   12.4570   39.4790   13.1470 C   0  0  0  0  0  0  0  0  0  0  0  0
   11.2920   38.7850   12.8680 C   0  0  0  0  0  0  0  0  0  0  0  0
    9.9760   38.8060   13.5800 C   0  0  0  0  0  0  0  0  0  0  0  0
    9.5790   37.7620   14.1400 O   0  0  0  0  0  0  0  0  0  0  0  0
    9.2780   39.8430   13.5960 O   0  0  0  0  0  1  0  0  0  0  0  0
   11.5130   37.9590   11.7460 N   0  0  0  0  0  0  0  0  0  0  0  0
   10.5710   37.0540   11.0820 C   0  0  0  0  0  0  0  0  0  0  0  0
    9.6080   37.7330   10.0990 C   0  0  0  0  0  0  0  0  0  0  0  0
    9.5560   39.1450    9.9920 C   0  0  0  0  0  0  0  0  0  0  0  0
    8.6760   39.7720    9.0930 C   0  0  0  0  0  0  0  0  0  0  0  0
    7.8290   38.9970    8.2840 C   0  0  0  0  0  0  0  0  0  0  0  0
    7.8610   37.5920    8.3720 C   0  0  0  0  0  0  0  0  0  0  0  0
    7.0030   36.8300    7.5530 C   0  0  0  0  0  0  0  0  0  0  0  0
    7.0180   35.4250    7.6240 C   0  0  0  0  0  0  0  0  0  0  0  0
    7.8920   34.7800    8.5170 C   0  0  0  0  0  0  0  0  0  0  0  0
    8.7500   35.5350    9.3380 C   0  0  0  0  0  0  0  0  0  0  0  0
    8.7490   36.9510    9.2790 C   0  0  0  0  0  0  0  0  0  0  0  0
   12.8200   38.1240   11.3050 C   0  0  0  0  0  0  0  0  0  0  0  0
   13.5370   37.5300   10.2460 C   0  0  0  0  0  0  0  0  0  0  0  0
   14.8740   37.8950   10.0140 C   0  0  0  0  0  0  0  0  0  0  0  0
   15.4880   38.8520   10.8400 C   0  0  0  0  0  0  0  0  0  0  0  0
   16.7750   39.2100   10.6190 F   0  0  0  0  0  0  0  0  0  0  0  0
   14.7670   39.4380   11.8980 C   0  0  0  0  0  0  0  0  0  0  0  0
   13.4210   39.0860   12.1610 C   0  0  0  0  0  0  0  0  0  0  0  0
   11.9755   43.3657   18.6304 H   0  0  0  0  0  0  0  0  0  0  0  0
   10.6790   42.1969   18.2065 H   0  0  0  0  0  0  0  0  0  0  0  0
   12.3968   41.6717   18.2065 H   0  0  0  0  0  0  0  0  0  0  0  0
   11.4654   43.9332   16.3872 H   0  0  0  0  0  0  0  0  0  0  0  0
   12.8890   42.8554   16.2115 H   0  0  0  0  0  0  0  0  0  0  0  0
   12.6219   39.0096   17.3101 H   0  0  0  0  0  0  0  0  0  0  0  0
   12.1581   37.9503   15.9355 H   0  0  0  0  0  0  0  0  0  0  0  0
   13.7541   38.7746   15.9355 H   0  0  0  0  0  0  0  0  0  0  0  0
   12.3592   41.4320   14.0049 H   0  0  0  0  0  0  0  0  0  0  0  0
   13.8266   40.4539   14.4442 H   0  0  0  0  0  0  0  0  0  0  0  0
   11.1521   36.3025   10.5274 H   0  0  0  0  0  0  0  0  0  0  0  0
    9.9463   36.6208   11.8770 H   0  0  0  0  0  0  0  0  0  0  0  0
   10.2148   39.7602   10.6225 H   0  0  0  0  0  0  0  0  0  0  0  0
    8.6507   40.8695    9.0231 H   0  0  0  0  0  0  0  0  0  0  0  0
    7.1400   39.4880    7.5810 H   0  0  0  0  0  0  0  0  0  0  0  0
    6.3191   37.3360    6.8557 H   0  0  0  0  0  0  0  0  0  0  0  0
    6.3482   34.8329    6.9830 H   0  0  0  0  0  0  0  0  0  0  0  0
    7.9050   33.6816    8.5740 H   0  0  0  0  0  0  0  0  0  0  0  0
    9.4292   35.0203   10.0335 H   0  0  0  0  0  0  0  0  0  0  0  0
   13.0505   36.7821    9.6026 H   0  0  0  0  0  0  0  0  0  0  0  0
   15.4375   37.4337    9.1896 H   0  0  0  0  0  0  0  0  0  0  0  0
   15.2609   40.1866   12.5350 H   0  0  0  0  0  0  0  0  0  0  0  0
  1  2  1  0
  2  3  1  0
  3  4  1  0
  4  5  2  0
  4  6  1  0
  6  7  1  0
  6  8  1  0
  8  9  1  0
  9 10  2  0
 10 11  1  0
 11 12  2  0
 11 13  1  0
 10 14  1  0
 14 15  1  0
 15 16  1  0
 16 17  2  0
 17 18  1  0
 18 19  2  0
 19 20  1  0
 20 21  2  0
 21 22  1  0
 22 23  2  0
 23 24  1  0
 24 25  2  0
 14 26  1  0
 26 27  2  0
 27 28  1  0
 28 29  2  0
 29 30  1  0
 29 31  1  0
 31 32  2  0
 32  9  1  0
 25 16  1  0
 32 26  1  0
 25 20  1  0
  1 33  1  0
  1 34  1  0
  1 35  1  0
  2 36  1  0
  2 37  1  0
  7 38  1  0
  7 39  1  0
  7 40  1  0
  8 41  1  0
  8 42  1  0
 15 43  1  0
 15 44  1  0
 17 45  1  0
 18 46  1  0
 19 47  1  0
 21 48  1  0
 22 49  1  0
 23 50  1  0
 24 51  1  0
 27 52  1  0
 28 53  1  0
 31 54  1  0
M  CHG  1  13  -1
M  END
>  <meeko>  (160) 
{"free_energy": -6.02, "intermolecular_energy": -8.41, "internal_energy": -1.7, "cluster_size": 283, "cluster_id": 7, "rank_in_cluster": 145}

$$$$

     RDKit          3D

 54 57  0  0  0  0  0  0  0  0999 V2000
   15.8960   38.8080   15.0590 C   0  0  0  0  0  0  0  0  0  0  0  0
   14.7080   38.2490   15.8470 C   0  0  0  0  0  0  0  0  0  0  0  0
   14.3640   39.1570   16.8800 O   0  0  0  0  0  0  0  0  0  0  0  0
   13.0900   39.5890   17.0040 C   0  0  0  0  0  0  0  0  0  0  0  0
   12.1560   38.8580   17.3370 O   0  0  0  0  0  0  0  0  0  0  0  0
   13.0040   40.9560   16.7100 N   0  0  0  0  0  0  0  0  0  0  0  0
   13.2700   41.9890   17.7170 C   0  0  0  0  0  0  0  0  0  0  0  0
   12.6110   41.4240   15.3740 C   0  0  0  0  0  0  0  0  0  0  0  0
   12.1660   40.2920   14.4790 C   0  0  0  0  0  0  0  0  0  0  0  0
   11.0720   39.4560   14.6180 C   0  0  0  0  0  0  0  0  0  0  0  0
   10.0030   39.4510   15.6650 C   0  0  0  0  0  0  0  0  0  0  0  0
    9.6000   40.5440   16.1180 O   0  0  0  0  0  0  0  0  0  0  0  0
    9.5360   38.3720   16.0920 O   0  0  0  0  0  1  0  0  0  0  0  0
   11.0910   38.5050   13.5760 N   0  0  0  0  0  0  0  0  0  0  0  0
   10.1340   37.4270   13.3090 C   0  0  0  0  0  0  0  0  0  0  0  0
    9.5590   37.4150   11.8860 C   0  0  0  0  0  0  0  0  0  0  0  0
    9.3440   36.1930   11.2010 C   0  0  0  0  0  0  0  0  0  0  0  0
    8.8170   36.1760    9.8980 C   0  0  0  0  0  0  0  0  0  0  0  0
    8.4960   37.3830    9.2550 C   0  0  0  0  0  0  0  0  0  0  0  0
    8.7020   38.6100    9.9140 C   0  0  0  0  0  0  0  0  0  0  0  0
    8.3740   39.8110    9.2530 C   0  0  0  0  0  0  0  0  0  0  0  0
    8.5710   41.0490    9.8920 C   0  0  0  0  0  0  0  0  0  0  0  0
    9.0960   41.0860   11.1960 C   0  0  0  0  0  0  0  0  0  0  0  0
    9.4260   39.8900   11.8620 C   0  0  0  0  0  0  0  0  0  0  0  0
    9.2340   38.6350   11.2330 C   0  0  0  0  0  0  0  0  0  0  0  0
   12.1990   38.7320   12.7700 C   0  0  0  0  0  0  0  0  0  0  0  0
   12.6790   38.0660   11.6230 C   0  0  0  0  0  0  0  0  0  0  0  0
   13.8440   38.5220   10.9850 C   0  0  0  0  0  0  0  0  0  0  0  0
   14.5250   39.6420   11.4930 C   0  0  0  0  0  0  0  0  0  0  0  0
   15.6470   40.0880   10.8800 F   0  0  0  0  0  0  0  0  0  0  0  0
   14.0420   40.2990   12.6410 C   0  0  0  0  0  0  0  0  0  0  0  0
   12.8740   39.8590   13.3100 C   0  0  0  0  0  0  0  0  0  0  0  0
   16.6634   39.1691   15.7595 H   0  0  0  0  0  0  0  0  0  0  0  0
   16.3214   38.0156   14.4257 H   0  0  0  0  0  0  0  0  0  0  0  0
   15.5566   39.6409   14.4257 H   0  0  0  0  0  0  0  0  0  0  0  0
   13.8491   38.1165   15.1727 H   0  0  0  0  0  0  0  0  0  0  0  0
   14.9799   37.2773   16.2850 H   0  0  0  0  0  0  0  0  0  0  0  0
   13.1590   41.5578   18.7228 H   0  0  0  0  0  0  0  0  0  0  0  0
   14.2950   42.3680   17.5916 H   0  0  0  0  0  0  0  0  0  0  0  0
   12.5555   42.8159   17.5916 H   0  0  0  0  0  0  0  0  0  0  0  0
   11.7817   42.1389   15.4792 H   0  0  0  0  0  0  0  0  0  0  0  0
   13.4902   41.8947   14.9098 H   0  0  0  0  0  0  0  0  0  0  0  0
   10.6431   36.4671   13.4805 H   0  0  0  0  0  0  0  0  0  0  0  0
    9.2829   37.5937   13.9856 H   0  0  0  0  0  0  0  0  0  0  0  0
    9.5934   35.2432   11.6967 H   0  0  0  0  0  0  0  0  0  0  0  0
    8.6560   35.2179    9.3820 H   0  0  0  0  0  0  0  0  0  0  0  0
    8.0832   37.3695    8.2355 H   0  0  0  0  0  0  0  0  0  0  0  0
    7.9623   39.7803    8.2334 H   0  0  0  0  0  0  0  0  0  0  0  0
    8.3152   41.9847    9.3733 H   0  0  0  0  0  0  0  0  0  0  0  0
    9.2495   42.0528   11.6977 H   0  0  0  0  0  0  0  0  0  0  0  0
    9.8372   39.9305   12.8814 H   0  0  0  0  0  0  0  0  0  0  0  0
   12.1417   37.1908   11.2289 H   0  0  0  0  0  0  0  0  0  0  0  0
   14.2223   38.0047   10.0910 H   0  0  0  0  0  0  0  0  0  0  0  0
   14.5846   41.1745   13.0271 H   0  0  0  0  0  0  0  0  0  0  0  0
  1  2  1  0
  2  3  1  0
  3  4  1  0
  4  5  2  0
  4  6  1  0
  6  7  1  0
  6  8  1  0
  8  9  1  0
  9 10  2  0
 10 11  1  0
 11 12  2  0
 11 13  1  0
 10 14  1  0
 14 15  1  0
 15 16  1  0
 16 17  2  0
 17 18  1  0
 18 19  2  0
 19 20  1  0
 20 21  2  0
 21 22  1  0
 22 23  2  0
 23 24  1  0
 24 25  2  0
 14 26  1  0
 26 27  2  0
 27 28  1  0
 28 29  2  0
 29 30  1  0
 29 31  1  0
 31 32  2  0
 32  9  1  0
 25 16  1  0
 32 26  1  0
 25 20  1  0
  1 33  1  0
  1 34  1  0
  1 35  1  0
  2 36  1  0
  2 37  1  0
  7 38  1  0
  7 39  1  0
  7 40  1  0
  8 41  1  0
  8 42  1  0
 15 43  1  0
 15 44  1  0
 17 45  1  0
 18 46  1  0
 19 47  1  0
 21 48  1  0
 22 49  1  0
 23 50  1  0
 24 51  1  0
 27 52  1  0
 28 53  1  0
 31 54  1  0
M  CHG  1  13  -1
M  END
>  <meeko>  (161) 
{"free_energy": -4.15, "intermolecular_energy": -6.54, "internal_energy": -2.2, "cluster_size": 283, "cluster_id": 7, "rank_in_cluster": 283}

$$$$

     RDKit          3D

 54 57  0  0  0  0  0  0  0  0999 V2000
   16.2320   35.9580   17.1200 C   0  0  0  0  0  0  0  0  0  0  0  0
   14.9570   35.1130   17.1830 C   0  0  0  0  0  0  0  0  0  0  0  0
   14.3440   35.2870   18.4510 O   0  0  0  0  0  0  0  0  0  0  0  0
   14.3330   36.5040   19.0350 C   0  0  0  0  0  0  0  0  0  0  0  0
   15.0680   36.8110   19.9760 O   0  0  0  0  0  0  0  0  0  0  0  0
   13.3910   37.3380   18.4190 N   0  0  0  0  0  0  0  0  0  0  0  0
   13.7820   38.5430   17.6780 C   0  0  0  0  0  0  0  0  0  0  0  0
   11.9520   37.0580   18.5090 C   0  0  0  0  0  0  0  0  0  0  0  0
   11.3040   36.9510   17.1490 C   0  0  0  0  0  0  0  0  0  0  0  0
   10.6560   37.9320   16.4180 C   0  0  0  0  0  0  0  0  0  0  0  0
   10.4410   39.3770   16.7410 C   0  0  0  0  0  0  0  0  0  0  0  0
   11.3910   40.1740   16.5850 O   0  0  0  0  0  0  0  0  0  0  0  0
    9.3390   39.7750   17.1750 O   0  0  0  0  0  1  0  0  0  0  0  0
   10.1530   37.3560   15.2310 N   0  0  0  0  0  0  0  0  0  0  0  0
    9.4090   38.0060   14.1480 C   0  0  0  0  0  0  0  0  0  0  0  0
    9.8380   37.5950   12.7340 C   0  0  0  0  0  0  0  0  0  0  0  0
    8.9490   36.8940   11.8800 C   0  0  0  0  0  0  0  0  0  0  0  0
    9.3380   36.5160   10.5840 C   0  0  0  0  0  0  0  0  0  0  0  0
   10.6250   36.8280   10.1170 C   0  0  0  0  0  0  0  0  0  0  0  0
   11.5270   37.5210   10.9460 C   0  0  0  0  0  0  0  0  0  0  0  0
   12.8150   37.8260   10.4610 C   0  0  0  0  0  0  0  0  0  0  0  0
   13.7330   38.5180   11.2720 C   0  0  0  0  0  0  0  0  0  0  0  0
   13.3630   38.9060   12.5710 C   0  0  0  0  0  0  0  0  0  0  0  0
   12.0780   38.6040   13.0620 C   0  0  0  0  0  0  0  0  0  0  0  0
   11.1410   37.9090   12.2590 C   0  0  0  0  0  0  0  0  0  0  0  0
   10.4790   36.0070   15.2030 C   0  0  0  0  0  0  0  0  0  0  0  0
   10.2050   34.9930   14.2620 C   0  0  0  0  0  0  0  0  0  0  0  0
   10.6710   33.6860   14.4840 C   0  0  0  0  0  0  0  0  0  0  0  0
   11.4110   33.3980   15.6440 C   0  0  0  0  0  0  0  0  0  0  0  0
   11.8660   32.1410   15.8610 F   0  0  0  0  0  0  0  0  0  0  0  0
   11.6780   34.4150   16.5810 C   0  0  0  0  0  0  0  0  0  0  0  0
   11.2150   35.7390   16.3880 C   0  0  0  0  0  0  0  0  0  0  0  0
   16.5730   36.1840   18.1411 H   0  0  0  0  0  0  0  0  0  0  0  0
   17.0158   35.3999   16.5868 H   0  0  0  0  0  0  0  0  0  0  0  0
   16.0234   36.8973   16.5868 H   0  0  0  0  0  0  0  0  0  0  0  0
   14.2634   35.4340   16.3919 H   0  0  0  0  0  0  0  0  0  0  0  0
   15.2091   34.0523   17.0368 H   0  0  0  0  0  0  0  0  0  0  0  0
   14.0413   39.3421   18.3881 H   0  0  0  0  0  0  0  0  0  0  0  0
   14.6532   38.3178   17.0453 H   0  0  0  0  0  0  0  0  0  0  0  0
   12.9446   38.8722   17.0453 H   0  0  0  0  0  0  0  0  0  0  0  0
   11.8091   36.1081   19.0449 H   0  0  0  0  0  0  0  0  0  0  0  0
   11.4785   37.8950   19.0431 H   0  0  0  0  0  0  0  0  0  0  0  0
    8.3441   37.7579   14.2679 H   0  0  0  0  0  0  0  0  0  0  0  0
    9.6169   39.0828   14.2332 H   0  0  0  0  0  0  0  0  0  0  0  0
    7.9397   36.6424   12.2377 H   0  0  0  0  0  0  0  0  0  0  0  0
    8.6338   35.9752    9.9346 H   0  0  0  0  0  0  0  0  0  0  0  0
   10.9285   36.5306    9.1024 H   0  0  0  0  0  0  0  0  0  0  0  0
   13.1035   37.5216    9.4441 H   0  0  0  0  0  0  0  0  0  0  0  0
   14.7372   38.7546   10.8905 H   0  0  0  0  0  0  0  0  0  0  0  0
   14.0794   39.4474   13.2064 H   0  0  0  0  0  0  0  0  0  0  0  0
   11.7990   38.9114   14.0807 H   0  0  0  0  0  0  0  0  0  0  0  0
    9.6271   35.2249   13.3552 H   0  0  0  0  0  0  0  0  0  0  0  0
   10.4577   32.8918   13.7534 H   0  0  0  0  0  0  0  0  0  0  0  0
   12.2595   34.1752   17.4834 H   0  0  0  0  0  0  0  0  0  0  0  0
  1  2  1  0
  2  3  1  0
  3  4  1  0
  4  5  2  0
  4  6  1  0
  6  7  1  0
  6  8  1  0
  8  9  1  0
  9 10  2  0
 10 11  1  0
 11 12  2  0
 11 13  1  0
 10 14  1  0
 14 15  1  0
 15 16  1  0
 16 17  2  0
 17 18  1  0
 18 19  2  0
 19 20  1  0
 20 21  2  0
 21 22  1  0
 22 23  2  0
 23 24  1  0
 24 25  2  0
 14 26  1  0
 26 27  2  0
 27 28  1  0
 28 29  2  0
 29 30  1  0
 29 31  1  0
 31 32  2  0
 32  9  1  0
 25 16  1  0
 32 26  1  0
 25 20  1  0
  1 33  1  0
  1 34  1  0
  1 35  1  0
  2 36  1  0
  2 37  1  0
  7 38  1  0
  7 39  1  0
  7 40  1  0
  8 41  1  0
  8 42  1  0
 15 43  1  0
 15 44  1  0
 17 45  1  0
 18 46  1  0
 19 47  1  0
 21 48  1  0
 22 49  1  0
 23 50  1  0
 24 51  1  0
 27 52  1  0
 28 53  1  0
 31 54  1  0
M  CHG  1  13  -1
M  END
>  <meeko>  (162) 
{"free_energy": -5.25, "intermolecular_energy": -7.63, "internal_energy": -2.25, "cluster_size": 66, "cluster_id": 61, "rank_in_cluster": 25}

$$$$

     RDKit          3D

 54 57  0  0  0  0  0  0  0  0999 V2000
    7.3430   38.2380    7.6950 C   0  0  0  0  0  0  0  0  0  0  0  0
    7.7280   36.7950    8.0280 C   0  0  0  0  0  0  0  0  0  0  0  0
    9.0200   36.7790    8.6120 O   0  0  0  0  0  0  0  0  0  0  0  0
    9.3130   35.8870    9.5820 C   0  0  0  0  0  0  0  0  0  0  0  0
    9.2060   34.6680    9.4370 O   0  0  0  0  0  0  0  0  0  0  0  0
    9.7500   36.5450   10.7390 N   0  0  0  0  0  0  0  0  0  0  0  0
   10.1170   35.8170   11.9590 C   0  0  0  0  0  0  0  0  0  0  0  0
    9.8340   38.0100   10.7970 C   0  0  0  0  0  0  0  0  0  0  0  0
   10.7850   38.4870   11.8690 C   0  0  0  0  0  0  0  0  0  0  0  0
   10.5880   38.5490   13.2370 C   0  0  0  0  0  0  0  0  0  0  0  0
    9.4030   38.1340   14.0500 C   0  0  0  0  0  0  0  0  0  0  0  0
    8.5590   37.3700   13.5340 O   0  0  0  0  0  0  0  0  0  0  0  0
    9.2500   38.5600   15.2160 O   0  0  0  0  0  1  0  0  0  0  0  0
   11.7300   39.1230   13.8350 N   0  0  0  0  0  0  0  0  0  0  0  0
   11.9830   39.3800   15.2560 C   0  0  0  0  0  0  0  0  0  0  0  0
   12.9640   38.4060   15.9230 C   0  0  0  0  0  0  0  0  0  0  0  0
   14.2010   38.8630   16.4400 C   0  0  0  0  0  0  0  0  0  0  0  0
   15.1030   37.9740   17.0520 C   0  0  0  0  0  0  0  0  0  0  0  0
   14.7830   36.6110   17.1550 C   0  0  0  0  0  0  0  0  0  0  0  0
   13.5610   36.1320   16.6480 C   0  0  0  0  0  0  0  0  0  0  0  0
   13.2570   34.7600   16.7600 C   0  0  0  0  0  0  0  0  0  0  0  0
   12.0420   34.2590   16.2600 C   0  0  0  0  0  0  0  0  0  0  0  0
   11.1270   35.1320   15.6450 C   0  0  0  0  0  0  0  0  0  0  0  0
   11.4240   36.5040   15.5290 C   0  0  0  0  0  0  0  0  0  0  0  0
   12.6440   37.0250   16.0280 C   0  0  0  0  0  0  0  0  0  0  0  0
   12.6590   39.4290   12.8480 C   0  0  0  0  0  0  0  0  0  0  0  0
   13.9370   40.0210   12.9120 C   0  0  0  0  0  0  0  0  0  0  0  0
   14.6810   40.2100   11.7350 C   0  0  0  0  0  0  0  0  0  0  0  0
   14.1450   39.8050   10.5000 C   0  0  0  0  0  0  0  0  0  0  0  0
   14.8590   39.9810    9.3620 F   0  0  0  0  0  0  0  0  0  0  0  0
   12.8670   39.2180   10.4440 C   0  0  0  0  0  0  0  0  0  0  0  0
   12.0900   39.0210   11.6120 C   0  0  0  0  0  0  0  0  0  0  0  0
    7.1926   38.8018    8.6274 H   0  0  0  0  0  0  0  0  0  0  0  0
    8.1476   38.7063    7.1091 H   0  0  0  0  0  0  0  0  0  0  0  0
    6.4120   38.2432    7.1091 H   0  0  0  0  0  0  0  0  0  0  0  0
    6.9991   36.3740    8.7362 H   0  0  0  0  0  0  0  0  0  0  0  0
    7.7313   36.1922    7.1079 H   0  0  0  0  0  0  0  0  0  0  0  0
    9.8205   36.4051   12.8401 H   0  0  0  0  0  0  0  0  0  0  0  0
    9.6008   34.8458   11.9758 H   0  0  0  0  0  0  0  0  0  0  0  0
   11.2048   35.6544   11.9758 H   0  0  0  0  0  0  0  0  0  0  0  0
   10.1829   38.3833    9.8229 H   0  0  0  0  0  0  0  0  0  0  0  0
    8.8326   38.3954   11.0393 H   0  0  0  0  0  0  0  0  0  0  0  0
   12.3920   40.3966   15.3521 H   0  0  0  0  0  0  0  0  0  0  0  0
   11.0195   39.2486   15.7701 H   0  0  0  0  0  0  0  0  0  0  0  0
   14.4601   39.9292   16.3617 H   0  0  0  0  0  0  0  0  0  0  0  0
   16.0586   38.3465   17.4497 H   0  0  0  0  0  0  0  0  0  0  0  0
   15.4890   35.9160   17.6331 H   0  0  0  0  0  0  0  0  0  0  0  0
   13.9737   34.0781   17.2409 H   0  0  0  0  0  0  0  0  0  0  0  0
   11.8081   33.1879   16.3496 H   0  0  0  0  0  0  0  0  0  0  0  0
   10.1760   34.7421   15.2532 H   0  0  0  0  0  0  0  0  0  0  0  0
   10.7014   37.1783   15.0460 H   0  0  0  0  0  0  0  0  0  0  0  0
   14.3510   40.3344   13.8817 H   0  0  0  0  0  0  0  0  0  0  0  0
   15.6780   40.6726   11.7797 H   0  0  0  0  0  0  0  0  0  0  0  0
   12.4620   38.9048    9.4704 H   0  0  0  0  0  0  0  0  0  0  0  0
  1  2  1  0
  2  3  1  0
  3  4  1  0
  4  5  2  0
  4  6  1  0
  6  7  1  0
  6  8  1  0
  8  9  1  0
  9 10  2  0
 10 11  1  0
 11 12  2  0
 11 13  1  0
 10 14  1  0
 14 15  1  0
 15 16  1  0
 16 17  2  0
 17 18  1  0
 18 19  2  0
 19 20  1  0
 20 21  2  0
 21 22  1  0
 22 23  2  0
 23 24  1  0
 24 25  2  0
 14 26  1  0
 26 27  2  0
 27 28  1  0
 28 29  2  0
 29 30  1  0
 29 31  1  0
 31 32  2  0
 32  9  1  0
 25 16  1  0
 32 26  1  0
 25 20  1  0
  1 33  1  0
  1 34  1  0
  1 35  1  0
  2 36  1  0
  2 37  1  0
  7 38  1  0
  7 39  1  0
  7 40  1  0
  8 41  1  0
  8 42  1  0
 15 43  1  0
 15 44  1  0
 17 45  1  0
 18 46  1  0
 19 47  1  0
 21 48  1  0
 22 49  1  0
 23 50  1  0
 24 51  1  0
 27 52  1  0
 28 53  1  0
 31 54  1  0
M  CHG  1  13  -1
M  END
>  <meeko>  (163) 
{"free_energy": -4.16, "intermolecular_energy": -6.54, "internal_energy": -1.61, "cluster_size": 47, "cluster_id": 38, "rank_in_cluster": 46}

$$$$

     RDKit          3D

 54 57  0  0  0  0  0  0  0  0999 V2000
    8.0840   39.2080    8.2360 C   0  0  0  0  0  0  0  0  0  0  0  0
    8.2740   39.0110    9.7420 C   0  0  0  0  0  0  0  0  0  0  0  0
    7.9530   37.6710   10.0810 O   0  0  0  0  0  0  0  0  0  0  0  0
    8.6850   37.0140   11.0060 C   0  0  0  0  0  0  0  0  0  0  0  0
    8.4460   37.0530   12.2140 O   0  0  0  0  0  0  0  0  0  0  0  0
    9.7220   36.2980   10.3930 N   0  0  0  0  0  0  0  0  0  0  0  0
    9.4680   35.1230    9.5530 C   0  0  0  0  0  0  0  0  0  0  0  0
   11.1280   36.6760   10.5880 C   0  0  0  0  0  0  0  0  0  0  0  0
   11.2710   37.9690   11.3570 C   0  0  0  0  0  0  0  0  0  0  0  0
   11.6260   39.2210   10.8880 C   0  0  0  0  0  0  0  0  0  0  0  0
   11.9340   39.6650    9.4930 C   0  0  0  0  0  0  0  0  0  0  0  0
   12.2440   40.8600    9.2980 O   0  0  0  0  0  0  0  0  0  0  0  0
   11.8630   38.8610    8.5390 O   0  0  0  0  0  1  0  0  0  0  0  0
   11.6940   40.1130   11.9800 N   0  0  0  0  0  0  0  0  0  0  0  0
   12.0190   41.5420   11.9700 C   0  0  0  0  0  0  0  0  0  0  0  0
   11.1760   42.4020   12.9200 C   0  0  0  0  0  0  0  0  0  0  0  0
   11.7610   43.0180   14.0550 C   0  0  0  0  0  0  0  0  0  0  0  0
   10.9930   43.8070   14.9280 C   0  0  0  0  0  0  0  0  0  0  0  0
    9.6230   43.9940   14.6830 C   0  0  0  0  0  0  0  0  0  0  0  0
    9.0180   43.3910   13.5640 C   0  0  0  0  0  0  0  0  0  0  0  0
    7.6400   43.5890   13.3340 C   0  0  0  0  0  0  0  0  0  0  0  0
    7.0150   42.9970   12.2220 C   0  0  0  0  0  0  0  0  0  0  0  0
    7.7670   42.2050   11.3370 C   0  0  0  0  0  0  0  0  0  0  0  0
    9.1420   42.0030   11.5610 C   0  0  0  0  0  0  0  0  0  0  0  0
    9.7880   42.5920   12.6760 C   0  0  0  0  0  0  0  0  0  0  0  0
   11.3820   39.4300   13.1490 C   0  0  0  0  0  0  0  0  0  0  0  0
   11.3210   39.8480   14.4940 C   0  0  0  0  0  0  0  0  0  0  0  0
   10.9630   38.9320   15.4970 C   0  0  0  0  0  0  0  0  0  0  0  0
   10.6660   37.6020   15.1520 C   0  0  0  0  0  0  0  0  0  0  0  0
   10.3170   36.7150   16.1140 F   0  0  0  0  0  0  0  0  0  0  0  0
   10.7330   37.1910   13.8070 C   0  0  0  0  0  0  0  0  0  0  0  0
   11.0980   38.0890   12.7750 C   0  0  0  0  0  0  0  0  0  0  0  0
    7.3301   39.9896    8.0607 H   0  0  0  0  0  0  0  0  0  0  0  0
    9.0391   39.5115    7.7825 H   0  0  0  0  0  0  0  0  0  0  0  0
    7.7462   38.2645    7.7825 H   0  0  0  0  0  0  0  0  0  0  0  0
    9.3203   39.2181   10.0111 H   0  0  0  0  0  0  0  0  0  0  0  0
    7.6147   39.6994   10.2910 H   0  0  0  0  0  0  0  0  0  0  0  0
    9.2790   34.2486   10.1931 H   0  0  0  0  0  0  0  0  0  0  0  0
    8.5894   35.3093    8.9179 H   0  0  0  0  0  0  0  0  0  0  0  0
   10.3451   34.9298    8.9179 H   0  0  0  0  0  0  0  0  0  0  0  0
   11.6361   35.8748   11.1448 H   0  0  0  0  0  0  0  0  0  0  0  0
   11.5788   36.8223    9.5953 H   0  0  0  0  0  0  0  0  0  0  0  0
   13.0757   41.6542   12.2542 H   0  0  0  0  0  0  0  0  0  0  0  0
   11.8014   41.9011   10.9533 H   0  0  0  0  0  0  0  0  0  0  0  0
   12.8332   42.8760   14.2554 H   0  0  0  0  0  0  0  0  0  0  0  0
   11.4648   44.2780   15.8030 H   0  0  0  0  0  0  0  0  0  0  0  0
    9.0220   44.6122   15.3661 H   0  0  0  0  0  0  0  0  0  0  0  0
    7.0524   44.2088   14.0272 H   0  0  0  0  0  0  0  0  0  0  0  0
    5.9406   43.1533   12.0452 H   0  0  0  0  0  0  0  0  0  0  0  0
    7.2794   41.7416   10.4666 H   0  0  0  0  0  0  0  0  0  0  0  0
    9.7213   41.3810   10.8627 H   0  0  0  0  0  0  0  0  0  0  0  0
   11.5535   40.8903   14.7577 H   0  0  0  0  0  0  0  0  0  0  0  0
   10.9153   39.2540   16.5477 H   0  0  0  0  0  0  0  0  0  0  0  0
   10.4962   36.1475   13.5519 H   0  0  0  0  0  0  0  0  0  0  0  0
  1  2  1  0
  2  3  1  0
  3  4  1  0
  4  5  2  0
  4  6  1  0
  6  7  1  0
  6  8  1  0
  8  9  1  0
  9 10  2  0
 10 11  1  0
 11 12  2  0
 11 13  1  0
 10 14  1  0
 14 15  1  0
 15 16  1  0
 16 17  2  0
 17 18  1  0
 18 19  2  0
 19 20  1  0
 20 21  2  0
 21 22  1  0
 22 23  2  0
 23 24  1  0
 24 25  2  0
 14 26  1  0
 26 27  2  0
 27 28  1  0
 28 29  2  0
 29 30  1  0
 29 31  1  0
 31 32  2  0
 32  9  1  0
 25 16  1  0
 32 26  1  0
 25 20  1  0
  1 33  1  0
  1 34  1  0
  1 35  1  0
  2 36  1  0
  2 37  1  0
  7 38  1  0
  7 39  1  0
  7 40  1  0
  8 41  1  0
  8 42  1  0
 15 43  1  0
 15 44  1  0
 17 45  1  0
 18 46  1  0
 19 47  1  0
 21 48  1  0
 22 49  1  0
 23 50  1  0
 24 51  1  0
 27 52  1  0
 28 53  1  0
 31 54  1  0
M  CHG  1  13  -1
M  END
>  <meeko>  (164) 
{"free_energy": -4.46, "intermolecular_energy": -6.85, "internal_energy": -2.45, "cluster_size": 86, "cluster_id": 25, "rank_in_cluster": 79}

$$$$

     RDKit          3D

 54 57  0  0  0  0  0  0  0  0999 V2000
   15.2770   36.4690    9.9270 C   0  0  0  0  0  0  0  0  0  0  0  0
   14.0150   37.1560   10.4570 C   0  0  0  0  0  0  0  0  0  0  0  0
   14.3630   38.4240   10.9910 O   0  0  0  0  0  0  0  0  0  0  0  0
   14.8110   39.4020   10.1740 C   0  0  0  0  0  0  0  0  0  0  0  0
   14.8580   39.2920    8.9480 O   0  0  0  0  0  0  0  0  0  0  0  0
   15.1960   40.5250   10.9180 N   0  0  0  0  0  0  0  0  0  0  0  0
   16.5480   40.6720   11.4670 C   0  0  0  0  0  0  0  0  0  0  0  0
   14.2450   41.6060   11.2110 C   0  0  0  0  0  0  0  0  0  0  0  0
   12.9910   41.0990   11.8830 C   0  0  0  0  0  0  0  0  0  0  0  0
   11.9070   40.4510   11.3180 C   0  0  0  0  0  0  0  0  0  0  0  0
   11.6770   40.0350    9.8990 C   0  0  0  0  0  0  0  0  0  0  0  0
   11.3110   40.8980    9.0720 O   0  0  0  0  0  0  0  0  0  0  0  0
   11.8310   38.8440    9.5520 O   0  0  0  0  0  1  0  0  0  0  0  0
   10.9400   40.2240   12.3200 N   0  0  0  0  0  0  0  0  0  0  0  0
    9.6380   39.5620   12.1970 C   0  0  0  0  0  0  0  0  0  0  0  0
    9.6610   38.2300   11.4360 C   0  0  0  0  0  0  0  0  0  0  0  0
   10.3220   37.0980   11.9740 C   0  0  0  0  0  0  0  0  0  0  0  0
   10.3450   35.8750   11.2810 C   0  0  0  0  0  0  0  0  0  0  0  0
    9.7090   35.7630   10.0340 C   0  0  0  0  0  0  0  0  0  0  0  0
    9.0480   36.8740    9.4770 C   0  0  0  0  0  0  0  0  0  0  0  0
    8.4150   36.7430    8.2230 C   0  0  0  0  0  0  0  0  0  0  0  0
    7.7490   37.8390    7.6480 C   0  0  0  0  0  0  0  0  0  0  0  0
    7.7130   39.0710    8.3260 C   0  0  0  0  0  0  0  0  0  0  0  0
    8.3430   39.2080    9.5780 C   0  0  0  0  0  0  0  0  0  0  0  0
    9.0190   38.1140   10.1730 C   0  0  0  0  0  0  0  0  0  0  0  0
   11.4060   40.7280   13.5280 C   0  0  0  0  0  0  0  0  0  0  0  0
   10.8290   40.7690   14.8140 C   0  0  0  0  0  0  0  0  0  0  0  0
   11.5390   41.3420   15.8820 C   0  0  0  0  0  0  0  0  0  0  0  0
   12.8230   41.8710   15.6610 C   0  0  0  0  0  0  0  0  0  0  0  0
   13.5140   42.4220   16.6880 F   0  0  0  0  0  0  0  0  0  0  0  0
   13.3910   41.8290   14.3730 C   0  0  0  0  0  0  0  0  0  0  0  0
   12.6970   41.2640   13.2760 C   0  0  0  0  0  0  0  0  0  0  0  0
   15.8944   36.1329   10.7731 H   0  0  0  0  0  0  0  0  0  0  0  0
   14.9921   35.6015    9.3136 H   0  0  0  0  0  0  0  0  0  0  0  0
   15.8510   37.1792    9.3136 H   0  0  0  0  0  0  0  0  0  0  0  0
   13.2953   37.2877    9.6356 H   0  0  0  0  0  0  0  0  0  0  0  0
   13.5595   36.5363   11.2434 H   0  0  0  0  0  0  0  0  0  0  0  0
   16.5001   40.6668   12.5659 H   0  0  0  0  0  0  0  0  0  0  0  0
   17.1761   39.8369   11.1234 H   0  0  0  0  0  0  0  0  0  0  0  0
   16.9819   41.6226   11.1234 H   0  0  0  0  0  0  0  0  0  0  0  0
   14.7320   42.3354   11.8749 H   0  0  0  0  0  0  0  0  0  0  0  0
   13.9527   42.0656   10.2553 H   0  0  0  0  0  0  0  0  0  0  0  0
    9.2548   39.3703   13.2101 H   0  0  0  0  0  0  0  0  0  0  0  0
    9.0002   40.2410   11.6121 H   0  0  0  0  0  0  0  0  0  0  0  0
   10.8250   37.1774   12.9491 H   0  0  0  0  0  0  0  0  0  0  0  0
   10.8610   35.0061   11.7154 H   0  0  0  0  0  0  0  0  0  0  0  0
    9.7274   34.8060    9.4919 H   0  0  0  0  0  0  0  0  0  0  0  0
    8.4428   35.7794    7.6932 H   0  0  0  0  0  0  0  0  0  0  0  0
    7.2569   37.7336    6.6699 H   0  0  0  0  0  0  0  0  0  0  0  0
    7.1916   39.9293    7.8772 H   0  0  0  0  0  0  0  0  0  0  0  0
    8.3099   40.1756   10.1002 H   0  0  0  0  0  0  0  0  0  0  0  0
    9.8244   40.3529   14.9806 H   0  0  0  0  0  0  0  0  0  0  0  0
   11.0926   41.3767   16.8867 H   0  0  0  0  0  0  0  0  0  0  0  0
   14.3972   42.2448   14.2157 H   0  0  0  0  0  0  0  0  0  0  0  0
  1  2  1  0
  2  3  1  0
  3  4  1  0
  4  5  2  0
  4  6  1  0
  6  7  1  0
  6  8  1  0
  8  9  1  0
  9 10  2  0
 10 11  1  0
 11 12  2  0
 11 13  1  0
 10 14  1  0
 14 15  1  0
 15 16  1  0
 16 17  2  0
 17 18  1  0
 18 19  2  0
 19 20  1  0
 20 21  2  0
 21 22  1  0
 22 23  2  0
 23 24  1  0
 24 25  2  0
 14 26  1  0
 26 27  2  0
 27 28  1  0
 28 29  2  0
 29 30  1  0
 29 31  1  0
 31 32  2  0
 32  9  1  0
 25 16  1  0
 32 26  1  0
 25 20  1  0
  1 33  1  0
  1 34  1  0
  1 35  1  0
  2 36  1  0
  2 37  1  0
  7 38  1  0
  7 39  1  0
  7 40  1  0
  8 41  1  0
  8 42  1  0
 15 43  1  0
 15 44  1  0
 17 45  1  0
 18 46  1  0
 19 47  1  0
 21 48  1  0
 22 49  1  0
 23 50  1  0
 24 51  1  0
 27 52  1  0
 28 53  1  0
 31 54  1  0
M  CHG  1  13  -1
M  END
>  <meeko>  (165) 
{"free_energy": -4.34, "intermolecular_energy": -6.73, "internal_energy": -2.24, "cluster_size": 61, "cluster_id": 70, "rank_in_cluster": 54}

$$$$

     RDKit          3D

 54 57  0  0  0  0  0  0  0  0999 V2000
   15.9670   39.5940   17.0800 C   0  0  0  0  0  0  0  0  0  0  0  0
   14.6890   39.5790   17.9220 C   0  0  0  0  0  0  0  0  0  0  0  0
   14.5400   40.8320   18.5690 O   0  0  0  0  0  0  0  0  0  0  0  0
   14.3370   41.9500   17.8390 C   0  0  0  0  0  0  0  0  0  0  0  0
   15.2520   42.6440   17.3930 O   0  0  0  0  0  0  0  0  0  0  0  0
   12.9660   42.1830   17.6680 N   0  0  0  0  0  0  0  0  0  0  0  0
   11.9800   41.8280   18.6950 C   0  0  0  0  0  0  0  0  0  0  0  0
   12.4420   42.7740   16.4290 C   0  0  0  0  0  0  0  0  0  0  0  0
   11.9960   41.7250   15.4390 C   0  0  0  0  0  0  0  0  0  0  0  0
   10.7140   41.2820   15.1640 C   0  0  0  0  0  0  0  0  0  0  0  0
    9.4060   41.7330   15.7340 C   0  0  0  0  0  0  0  0  0  0  0  0
    9.2100   41.6040   16.9620 O   0  0  0  0  0  0  0  0  0  0  0  0
    8.5200   42.2120   14.9930 O   0  0  0  0  0  1  0  0  0  0  0  0
   10.7860   40.2440   14.2110 N   0  0  0  0  0  0  0  0  0  0  0  0
    9.6880   39.4810   13.6110 C   0  0  0  0  0  0  0  0  0  0  0  0
    9.5290   39.6620   12.0950 C   0  0  0  0  0  0  0  0  0  0  0  0
    9.6550   40.9420   11.5000 C   0  0  0  0  0  0  0  0  0  0  0  0
    9.5110   41.1130   10.1130 C   0  0  0  0  0  0  0  0  0  0  0  0
    9.2350   40.0060    9.2940 C   0  0  0  0  0  0  0  0  0  0  0  0
    9.1030   38.7250    9.8610 C   0  0  0  0  0  0  0  0  0  0  0  0
    8.8260   37.6240    9.0240 C   0  0  0  0  0  0  0  0  0  0  0  0
    8.6900   36.3350    9.5690 C   0  0  0  0  0  0  0  0  0  0  0  0
    8.8320   36.1430   10.9540 C   0  0  0  0  0  0  0  0  0  0  0  0
    9.1080   37.2380   11.7960 C   0  0  0  0  0  0  0  0  0  0  0  0
    9.2490   38.5430   11.2640 C   0  0  0  0  0  0  0  0  0  0  0  0
   12.1150   40.0210   13.8760 C   0  0  0  0  0  0  0  0  0  0  0  0
   12.7220   39.1010   12.9970 C   0  0  0  0  0  0  0  0  0  0  0  0
   14.1180   39.0980   12.8390 C   0  0  0  0  0  0  0  0  0  0  0  0
   14.9020   40.0160   13.5590 C   0  0  0  0  0  0  0  0  0  0  0  0
   16.2480   40.0210   13.4080 F   0  0  0  0  0  0  0  0  0  0  0  0
   14.2900   40.9300   14.4380 C   0  0  0  0  0  0  0  0  0  0  0  0
   12.8860   40.9520   14.6230 C   0  0  0  0  0  0  0  0  0  0  0  0
   16.8437   39.6043   17.7443 H   0  0  0  0  0  0  0  0  0  0  0  0
   15.9985   38.6962   16.4453 H   0  0  0  0  0  0  0  0  0  0  0  0
   15.9774   40.4923   16.4453 H   0  0  0  0  0  0  0  0  0  0  0  0
   13.8217   39.3963   17.2705 H   0  0  0  0  0  0  0  0  0  0  0  0
   14.7532   38.7802   18.6755 H   0  0  0  0  0  0  0  0  0  0  0  0
   12.4166   41.9852   19.6923 H   0  0  0  0  0  0  0  0  0  0  0  0
   11.0879   42.4614   18.5813 H   0  0  0  0  0  0  0  0  0  0  0  0
   11.6964   40.7713   18.5813 H   0  0  0  0  0  0  0  0  0  0  0  0
   11.5826   43.4139   16.6779 H   0  0  0  0  0  0  0  0  0  0  0  0
   13.2524   43.3540   15.9633 H   0  0  0  0  0  0  0  0  0  0  0  0
    9.8639   38.4138   13.8113 H   0  0  0  0  0  0  0  0  0  0  0  0
    8.7621   39.8622   14.0663 H   0  0  0  0  0  0  0  0  0  0  0  0
    9.8689   41.8152   12.1339 H   0  0  0  0  0  0  0  0  0  0  0  0
    9.6144   42.1139    9.6685 H   0  0  0  0  0  0  0  0  0  0  0  0
    9.1219   40.1405    8.2081 H   0  0  0  0  0  0  0  0  0  0  0  0
    8.7159   37.7745    7.9399 H   0  0  0  0  0  0  0  0  0  0  0  0
    8.4730   35.4791    8.9130 H   0  0  0  0  0  0  0  0  0  0  0  0
    8.7273   35.1349   11.3816 H   0  0  0  0  0  0  0  0  0  0  0  0
    9.2152   37.0777   12.8790 H   0  0  0  0  0  0  0  0  0  0  0  0
   12.1030   38.3860   12.4352 H   0  0  0  0  0  0  0  0  0  0  0  0
   14.5952   38.3807   12.1551 H   0  0  0  0  0  0  0  0  0  0  0  0
   14.9166   41.6432   14.9937 H   0  0  0  0  0  0  0  0  0  0  0  0
  1  2  1  0
  2  3  1  0
  3  4  1  0
  4  5  2  0
  4  6  1  0
  6  7  1  0
  6  8  1  0
  8  9  1  0
  9 10  2  0
 10 11  1  0
 11 12  2  0
 11 13  1  0
 10 14  1  0
 14 15  1  0
 15 16  1  0
 16 17  2  0
 17 18  1  0
 18 19  2  0
 19 20  1  0
 20 21  2  0
 21 22  1  0
 22 23  2  0
 23 24  1  0
 24 25  2  0
 14 26  1  0
 26 27  2  0
 27 28  1  0
 28 29  2  0
 29 30  1  0
 29 31  1  0
 31 32  2  0
 32  9  1  0
 25 16  1  0
 32 26  1  0
 25 20  1  0
  1 33  1  0
  1 34  1  0
  1 35  1  0
  2 36  1  0
  2 37  1  0
  7 38  1  0
  7 39  1  0
  7 40  1  0
  8 41  1  0
  8 42  1  0
 15 43  1  0
 15 44  1  0
 17 45  1  0
 18 46  1  0
 19 47  1  0
 21 48  1  0
 22 49  1  0
 23 50  1  0
 24 51  1  0
 27 52  1  0
 28 53  1  0
 31 54  1  0
M  CHG  1  13  -1
M  END
>  <meeko>  (166) 
{"free_energy": -4.15, "intermolecular_energy": -6.54, "internal_energy": -2.18, "cluster_size": 6, "cluster_id": 200, "rank_in_cluster": 5}

$$$$

     RDKit          3D

 54 57  0  0  0  0  0  0  0  0999 V2000
   14.8470   39.2470   18.3770 C   0  0  0  0  0  0  0  0  0  0  0  0
   13.9020   38.9750   17.2040 C   0  0  0  0  0  0  0  0  0  0  0  0
   13.2070   37.7600   17.4360 O   0  0  0  0  0  0  0  0  0  0  0  0
   12.5130   37.5860   18.5810 C   0  0  0  0  0  0  0  0  0  0  0  0
   12.7270   36.6640   19.3700 O   0  0  0  0  0  0  0  0  0  0  0  0
   11.5470   38.5900   18.7270 N   0  0  0  0  0  0  0  0  0  0  0  0
   11.6190   39.5930   19.7950 C   0  0  0  0  0  0  0  0  0  0  0  0
   10.3890   38.6710   17.8260 C   0  0  0  0  0  0  0  0  0  0  0  0
    9.5930   37.3870   17.8010 C   0  0  0  0  0  0  0  0  0  0  0  0
    8.3560   37.1240   18.3620 C   0  0  0  0  0  0  0  0  0  0  0  0
    7.4390   38.0320   19.1190 C   0  0  0  0  0  0  0  0  0  0  0  0
    7.4370   37.9800   20.3670 O   0  0  0  0  0  0  0  0  0  0  0  0
    6.6750   38.8150   18.5120 O   0  0  0  0  0  1  0  0  0  0  0  0
    8.0350   35.7680   18.1400 N   0  0  0  0  0  0  0  0  0  0  0  0
    6.8280   35.0400   18.5410 C   0  0  0  0  0  0  0  0  0  0  0  0
    5.9070   35.7990   19.5050 C   0  0  0  0  0  0  0  0  0  0  0  0
    6.0310   35.6350   20.9070 C   0  0  0  0  0  0  0  0  0  0  0  0
    5.1900   36.3290   21.7940 C   0  0  0  0  0  0  0  0  0  0  0  0
    4.2070   37.1990   21.2940 C   0  0  0  0  0  0  0  0  0  0  0  0
    4.0630   37.3780   19.9060 C   0  0  0  0  0  0  0  0  0  0  0  0
    3.0710   38.2550   19.4220 C   0  0  0  0  0  0  0  0  0  0  0  0
    2.9090   38.4480   18.0380 C   0  0  0  0  0  0  0  0  0  0  0  0
    3.7410   37.7640   17.1350 C   0  0  0  0  0  0  0  0  0  0  0  0
    4.7340   36.8860   17.6110 C   0  0  0  0  0  0  0  0  0  0  0  0
    4.9110   36.6800   19.0020 C   0  0  0  0  0  0  0  0  0  0  0  0
    9.0690   35.1630   17.4360 C   0  0  0  0  0  0  0  0  0  0  0  0
    9.2480   33.8400   16.9820 C   0  0  0  0  0  0  0  0  0  0  0  0
   10.4100   33.4940   16.2720 C   0  0  0  0  0  0  0  0  0  0  0  0
   11.3870   34.4720   16.0160 C   0  0  0  0  0  0  0  0  0  0  0  0
   12.5070   34.1460   15.3280 F   0  0  0  0  0  0  0  0  0  0  0  0
   11.2020   35.7900   16.4760 C   0  0  0  0  0  0  0  0  0  0  0  0
   10.0450   36.1670   17.2000 C   0  0  0  0  0  0  0  0  0  0  0  0
   14.3096   39.0923   19.3243 H   0  0  0  0  0  0  0  0  0  0  0  0
   15.7037   38.5590   18.3249 H   0  0  0  0  0  0  0  0  0  0  0  0
   15.2068   40.2852   18.3249 H   0  0  0  0  0  0  0  0  0  0  0  0
   13.1802   39.8002   17.1142 H   0  0  0  0  0  0  0  0  0  0  0  0
   14.4823   38.8965   16.2728 H   0  0  0  0  0  0  0  0  0  0  0  0
   11.5829   39.0906   20.7729 H   0  0  0  0  0  0  0  0  0  0  0  0
   12.5599   40.1560   19.7065 H   0  0  0  0  0  0  0  0  0  0  0  0
   10.7682   40.2846   19.7065 H   0  0  0  0  0  0  0  0  0  0  0  0
    9.7337   39.4873   18.1642 H   0  0  0  0  0  0  0  0  0  0  0  0
   10.7654   38.8543   16.8088 H   0  0  0  0  0  0  0  0  0  0  0  0
    6.2532   34.8048   17.6331 H   0  0  0  0  0  0  0  0  0  0  0  0
    7.1720   34.1461   19.0820 H   0  0  0  0  0  0  0  0  0  0  0  0
    6.7969   34.9544   21.3072 H   0  0  0  0  0  0  0  0  0  0  0  0
    5.3016   36.1908   22.8796 H   0  0  0  0  0  0  0  0  0  0  0  0
    3.5488   37.7412   21.9888 H   0  0  0  0  0  0  0  0  0  0  0  0
    2.4209   38.7906   20.1295 H   0  0  0  0  0  0  0  0  0  0  0  0
    2.1334   39.1323   17.6636 H   0  0  0  0  0  0  0  0  0  0  0  0
    3.6161   37.9150   16.0526 H   0  0  0  0  0  0  0  0  0  0  0  0
    5.3789   36.3546   16.8957 H   0  0  0  0  0  0  0  0  0  0  0  0
    8.4789   33.0798   17.1835 H   0  0  0  0  0  0  0  0  0  0  0  0
   10.5547   32.4626   15.9180 H   0  0  0  0  0  0  0  0  0  0  0  0
   11.9747   36.5447   16.2679 H   0  0  0  0  0  0  0  0  0  0  0  0
  1  2  1  0
  2  3  1  0
  3  4  1  0
  4  5  2  0
  4  6  1  0
  6  7  1  0
  6  8  1  0
  8  9  1  0
  9 10  2  0
 10 11  1  0
 11 12  2  0
 11 13  1  0
 10 14  1  0
 14 15  1  0
 15 16  1  0
 16 17  2  0
 17 18  1  0
 18 19  2  0
 19 20  1  0
 20 21  2  0
 21 22  1  0
 22 23  2  0
 23 24  1  0
 24 25  2  0
 14 26  1  0
 26 27  2  0
 27 28  1  0
 28 29  2  0
 29 30  1  0
 29 31  1  0
 31 32  2  0
 32  9  1  0
 25 16  1  0
 32 26  1  0
 25 20  1  0
  1 33  1  0
  1 34  1  0
  1 35  1  0
  2 36  1  0
  2 37  1  0
  7 38  1  0
  7 39  1  0
  7 40  1  0
  8 41  1  0
  8 42  1  0
 15 43  1  0
 15 44  1  0
 17 45  1  0
 18 46  1  0
 19 47  1  0
 21 48  1  0
 22 49  1  0
 23 50  1  0
 24 51  1  0
 27 52  1  0
 28 53  1  0
 31 54  1  0
M  CHG  1  13  -1
M  END
>  <meeko>  (167) 
{"free_energy": -5.61, "intermolecular_energy": -8.0, "internal_energy": -0.98, "cluster_size": 136, "cluster_id": 17, "rank_in_cluster": 83}

$$$$

     RDKit          3D

 54 57  0  0  0  0  0  0  0  0999 V2000
   12.2600   40.7120    9.1880 C   0  0  0  0  0  0  0  0  0  0  0  0
   12.3810   39.2150    8.8970 C   0  0  0  0  0  0  0  0  0  0  0  0
   11.1110   38.6030    9.0600 O   0  0  0  0  0  0  0  0  0  0  0  0
   10.3720   38.8610   10.1610 C   0  0  0  0  0  0  0  0  0  0  0  0
    9.4270   39.6520   10.1730 O   0  0  0  0  0  0  0  0  0  0  0  0
   10.8320   38.1080   11.2480 N   0  0  0  0  0  0  0  0  0  0  0  0
   12.2120   38.2030   11.7360 C   0  0  0  0  0  0  0  0  0  0  0  0
    9.9530   37.1550   11.9400 C   0  0  0  0  0  0  0  0  0  0  0  0
    9.9500   37.3630   13.4370 C   0  0  0  0  0  0  0  0  0  0  0  0
    9.7680   36.4280   14.4410 C   0  0  0  0  0  0  0  0  0  0  0  0
    9.5590   34.9500   14.3420 C   0  0  0  0  0  0  0  0  0  0  0  0
    8.4370   34.5250   13.9910 O   0  0  0  0  0  0  0  0  0  0  0  0
   10.4820   34.1560   14.6230 O   0  0  0  0  0  1  0  0  0  0  0  0
    9.7820   37.0910   15.6870 N   0  0  0  0  0  0  0  0  0  0  0  0
    9.6380   36.5150   17.0260 C   0  0  0  0  0  0  0  0  0  0  0  0
    8.1920   36.2260   17.4520 C   0  0  0  0  0  0  0  0  0  0  0  0
    7.5200   35.0630   16.9980 C   0  0  0  0  0  0  0  0  0  0  0  0
    6.1960   34.7940   17.3860 C   0  0  0  0  0  0  0  0  0  0  0  0
    5.5180   35.6850   18.2330 C   0  0  0  0  0  0  0  0  0  0  0  0
    6.1630   36.8480   18.6950 C   0  0  0  0  0  0  0  0  0  0  0  0
    5.4660   37.7320   19.5450 C   0  0  0  0  0  0  0  0  0  0  0  0
    6.0900   38.8990   20.0190 C   0  0  0  0  0  0  0  0  0  0  0  0
    7.4140   39.1850   19.6440 C   0  0  0  0  0  0  0  0  0  0  0  0
    8.1150   38.3080   18.7950 C   0  0  0  0  0  0  0  0  0  0  0  0
    7.5020   37.1270   18.3090 C   0  0  0  0  0  0  0  0  0  0  0  0
    9.9720   38.4510   15.4790 C   0  0  0  0  0  0  0  0  0  0  0  0
   10.0470   39.5370   16.3760 C   0  0  0  0  0  0  0  0  0  0  0  0
   10.2590   40.8370   15.8860 C   0  0  0  0  0  0  0  0  0  0  0  0
   10.3960   41.0460   14.5030 C   0  0  0  0  0  0  0  0  0  0  0  0
   10.6050   42.2960   14.0250 F   0  0  0  0  0  0  0  0  0  0  0  0
   10.3170   39.9570   13.6130 C   0  0  0  0  0  0  0  0  0  0  0  0
   10.0970   38.6370   14.0760 C   0  0  0  0  0  0  0  0  0  0  0  0
   12.2469   40.8742   10.2759 H   0  0  0  0  0  0  0  0  0  0  0  0
   13.1183   41.2415    8.7487 H   0  0  0  0  0  0  0  0  0  0  0  0
   11.3278   41.0968    8.7487 H   0  0  0  0  0  0  0  0  0  0  0  0
   12.7302   39.0682    7.8643 H   0  0  0  0  0  0  0  0  0  0  0  0
   13.1018   38.7607    9.5928 H   0  0  0  0  0  0  0  0  0  0  0  0
   12.2127   38.2031   12.8360 H   0  0  0  0  0  0  0  0  0  0  0  0
   12.7908   37.3426   11.3690 H   0  0  0  0  0  0  0  0  0  0  0  0
   12.6674   39.1346   11.3690 H   0  0  0  0  0  0  0  0  0  0  0  0
    8.9274   37.2812   11.5629 H   0  0  0  0  0  0  0  0  0  0  0  0
   10.3313   36.1414   11.7410 H   0  0  0  0  0  0  0  0  0  0  0  0
   10.1980   35.5686   17.0531 H   0  0  0  0  0  0  0  0  0  0  0  0
   10.0226   37.2682   17.7293 H   0  0  0  0  0  0  0  0  0  0  0  0
    8.0426   34.3606   16.3321 H   0  0  0  0  0  0  0  0  0  0  0  0
    5.6912   33.8854   17.0260 H   0  0  0  0  0  0  0  0  0  0  0  0
    4.4818   35.4742   18.5360 H   0  0  0  0  0  0  0  0  0  0  0  0
    4.4299   37.5072   19.8381 H   0  0  0  0  0  0  0  0  0  0  0  0
    5.5436   39.5864   20.6815 H   0  0  0  0  0  0  0  0  0  0  0  0
    7.9040   40.0972   20.0152 H   0  0  0  0  0  0  0  0  0  0  0  0
    9.1501   38.5423   18.5058 H   0  0  0  0  0  0  0  0  0  0  0  0
    9.9397   39.3666   17.4574 H   0  0  0  0  0  0  0  0  0  0  0  0
   10.3174   41.6870   16.5817 H   0  0  0  0  0  0  0  0  0  0  0  0
   10.4288   40.1361   12.5335 H   0  0  0  0  0  0  0  0  0  0  0  0
  1  2  1  0
  2  3  1  0
  3  4  1  0
  4  5  2  0
  4  6  1  0
  6  7  1  0
  6  8  1  0
  8  9  1  0
  9 10  2  0
 10 11  1  0
 11 12  2  0
 11 13  1  0
 10 14  1  0
 14 15  1  0
 15 16  1  0
 16 17  2  0
 17 18  1  0
 18 19  2  0
 19 20  1  0
 20 21  2  0
 21 22  1  0
 22 23  2  0
 23 24  1  0
 24 25  2  0
 14 26  1  0
 26 27  2  0
 27 28  1  0
 28 29  2  0
 29 30  1  0
 29 31  1  0
 31 32  2  0
 32  9  1  0
 25 16  1  0
 32 26  1  0
 25 20  1  0
  1 33  1  0
  1 34  1  0
  1 35  1  0
  2 36  1  0
  2 37  1  0
  7 38  1  0
  7 39  1  0
  7 40  1  0
  8 41  1  0
  8 42  1  0
 15 43  1  0
 15 44  1  0
 17 45  1  0
 18 46  1  0
 19 47  1  0
 21 48  1  0
 22 49  1  0
 23 50  1  0
 24 51  1  0
 27 52  1  0
 28 53  1  0
 31 54  1  0
M  CHG  1  13  -1
M  END
>  <meeko>  (168) 
{"free_energy": -5.63, "intermolecular_energy": -8.02, "internal_energy": -1.67, "cluster_size": 136, "cluster_id": 23, "rank_in_cluster": 76}

$$$$

     RDKit          3D

 54 57  0  0  0  0  0  0  0  0999 V2000
   14.9510   38.4000   10.1390 C   0  0  0  0  0  0  0  0  0  0  0  0
   15.1730   38.9240   11.5610 C   0  0  0  0  0  0  0  0  0  0  0  0
   15.4990   40.3030   11.5050 O   0  0  0  0  0  0  0  0  0  0  0  0
   14.6350   41.2220   11.9880 C   0  0  0  0  0  0  0  0  0  0  0  0
   14.0990   41.1330   13.0940 O   0  0  0  0  0  0  0  0  0  0  0  0
   14.4570   42.2620   11.0660 N   0  0  0  0  0  0  0  0  0  0  0  0
   15.4650   42.5860   10.0510 C   0  0  0  0  0  0  0  0  0  0  0  0
   13.2550   43.1050   11.0920 C   0  0  0  0  0  0  0  0  0  0  0  0
   11.9980   42.3170   10.8080 C   0  0  0  0  0  0  0  0  0  0  0  0
   11.7710   41.3720    9.8230 C   0  0  0  0  0  0  0  0  0  0  0  0
   12.7040   40.8340    8.7840 C   0  0  0  0  0  0  0  0  0  0  0  0
   12.7250   39.6020    8.5760 O   0  0  0  0  0  0  0  0  0  0  0  0
   13.4620   41.6010    8.1500 O   0  0  0  0  0  1  0  0  0  0  0  0
   10.4270   40.9480    9.9000 N   0  0  0  0  0  0  0  0  0  0  0  0
    9.7360   39.9560    9.0710 C   0  0  0  0  0  0  0  0  0  0  0  0
    9.8300   38.5120    9.5810 C   0  0  0  0  0  0  0  0  0  0  0  0
   10.8370   38.1320   10.5030 C   0  0  0  0  0  0  0  0  0  0  0  0
   10.9260   36.8100   10.9730 C   0  0  0  0  0  0  0  0  0  0  0  0
   10.0110   35.8430   10.5280 C   0  0  0  0  0  0  0  0  0  0  0  0
    9.0030   36.1960    9.6110 C   0  0  0  0  0  0  0  0  0  0  0  0
    8.0920   35.2110    9.1740 C   0  0  0  0  0  0  0  0  0  0  0  0
    7.0780   35.5410    8.2580 C   0  0  0  0  0  0  0  0  0  0  0  0
    6.9710   36.8580    7.7770 C   0  0  0  0  0  0  0  0  0  0  0  0
    7.8770   37.8450    8.2080 C   0  0  0  0  0  0  0  0  0  0  0  0
    8.9050   37.5310    9.1310 C   0  0  0  0  0  0  0  0  0  0  0  0
    9.7930   41.6230   10.9350 C   0  0  0  0  0  0  0  0  0  0  0  0
    8.4680   41.5770   11.4140 C   0  0  0  0  0  0  0  0  0  0  0  0
    8.0890   42.3770   12.5060 C   0  0  0  0  0  0  0  0  0  0  0  0
    9.0360   43.2170   13.1150 C   0  0  0  0  0  0  0  0  0  0  0  0
    8.6790   43.9880   14.1700 F   0  0  0  0  0  0  0  0  0  0  0  0
   10.3570   43.2610   12.6290 C   0  0  0  0  0  0  0  0  0  0  0  0
   10.7670   42.4720   11.5260 C   0  0  0  0  0  0  0  0  0  0  0  0
   14.5222   37.3880   10.1839 H   0  0  0  0  0  0  0  0  0  0  0  0
   14.2587   39.0682    9.6059 H   0  0  0  0  0  0  0  0  0  0  0  0
   15.9126   38.3675    9.6059 H   0  0  0  0  0  0  0  0  0  0  0  0
   14.2548   38.7868   12.1510 H   0  0  0  0  0  0  0  0  0  0  0  0
   15.9961   38.3690   12.0347 H   0  0  0  0  0  0  0  0  0  0  0  0
   16.4002   42.8866   10.5459 H   0  0  0  0  0  0  0  0  0  0  0  0
   15.6502   41.7021    9.4229 H   0  0  0  0  0  0  0  0  0  0  0  0
   15.1005   43.4122    9.4229 H   0  0  0  0  0  0  0  0  0  0  0  0
   13.1670   43.5655   12.0871 H   0  0  0  0  0  0  0  0  0  0  0  0
   13.3603   43.8669   10.3056 H   0  0  0  0  0  0  0  0  0  0  0  0
    8.6725   40.2327    9.0216 H   0  0  0  0  0  0  0  0  0  0  0  0
   10.2349   39.9708    8.0908 H   0  0  0  0  0  0  0  0  0  0  0  0
   11.5596   38.8825   10.8561 H   0  0  0  0  0  0  0  0  0  0  0  0
   11.7131   36.5333   11.6899 H   0  0  0  0  0  0  0  0  0  0  0  0
   10.0817   34.8088   10.8960 H   0  0  0  0  0  0  0  0  0  0  0  0
    8.1756   34.1812    9.5515 H   0  0  0  0  0  0  0  0  0  0  0  0
    6.3699   34.7708    7.9183 H   0  0  0  0  0  0  0  0  0  0  0  0
    6.1767   37.1176    7.0617 H   0  0  0  0  0  0  0  0  0  0  0  0
    7.7860   38.8717    7.8239 H   0  0  0  0  0  0  0  0  0  0  0  0
    7.7315   40.9159   10.9339 H   0  0  0  0  0  0  0  0  0  0  0  0
    7.0557   42.3454   12.8819 H   0  0  0  0  0  0  0  0  0  0  0  0
   11.0873   43.9232   13.1170 H   0  0  0  0  0  0  0  0  0  0  0  0
  1  2  1  0
  2  3  1  0
  3  4  1  0
  4  5  2  0
  4  6  1  0
  6  7  1  0
  6  8  1  0
  8  9  1  0
  9 10  2  0
 10 11  1  0
 11 12  2  0
 11 13  1  0
 10 14  1  0
 14 15  1  0
 15 16  1  0
 16 17  2  0
 17 18  1  0
 18 19  2  0
 19 20  1  0
 20 21  2  0
 21 22  1  0
 22 23  2  0
 23 24  1  0
 24 25  2  0
 14 26  1  0
 26 27  2  0
 27 28  1  0
 28 29  2  0
 29 30  1  0
 29 31  1  0
 31 32  2  0
 32  9  1  0
 25 16  1  0
 32 26  1  0
 25 20  1  0
  1 33  1  0
  1 34  1  0
  1 35  1  0
  2 36  1  0
  2 37  1  0
  7 38  1  0
  7 39  1  0
  7 40  1  0
  8 41  1  0
  8 42  1  0
 15 43  1  0
 15 44  1  0
 17 45  1  0
 18 46  1  0
 19 47  1  0
 21 48  1  0
 22 49  1  0
 23 50  1  0
 24 51  1  0
 27 52  1  0
 28 53  1  0
 31 54  1  0
M  CHG  1  13  -1
M  END
>  <meeko>  (169) 
{"free_energy": -5.68, "intermolecular_energy": -8.07, "internal_energy": -2.2, "cluster_size": 417, "cluster_id": 2, "rank_in_cluster": 319}

$$$$

     RDKit          3D

 54 57  0  0  0  0  0  0  0  0999 V2000
   12.3950   42.2010   11.8040 C   0  0  0  0  0  0  0  0  0  0  0  0
   12.7790   43.3070   10.8180 C   0  0  0  0  0  0  0  0  0  0  0  0
   12.6680   42.8100    9.4940 O   0  0  0  0  0  0  0  0  0  0  0  0
   12.0760   41.6180    9.2660 C   0  0  0  0  0  0  0  0  0  0  0  0
   10.8560   41.4720    9.1820 O   0  0  0  0  0  0  0  0  0  0  0  0
   13.0390   40.6080    9.1380 N   0  0  0  0  0  0  0  0  0  0  0  0
   14.4770   40.8940    9.1600 C   0  0  0  0  0  0  0  0  0  0  0  0
   12.6500   39.2050    8.9440 C   0  0  0  0  0  0  0  0  0  0  0  0
   11.7510   38.7030   10.0490 C   0  0  0  0  0  0  0  0  0  0  0  0
   12.0370   38.5420   11.3930 C   0  0  0  0  0  0  0  0  0  0  0  0
   13.2950   38.8480   12.1440 C   0  0  0  0  0  0  0  0  0  0  0  0
   14.3330   38.2140   11.8600 O   0  0  0  0  0  0  0  0  0  0  0  0
   13.3010   39.7090   13.0510 O   0  0  0  0  0  1  0  0  0  0  0  0
   10.9110   37.9830   12.0340 N   0  0  0  0  0  0  0  0  0  0  0  0
   10.7430   37.6460   13.4510 C   0  0  0  0  0  0  0  0  0  0  0  0
   10.8390   38.8370   14.4130 C   0  0  0  0  0  0  0  0  0  0  0  0
   11.4640   38.7000   15.6780 C   0  0  0  0  0  0  0  0  0  0  0  0
   11.5540   39.7880   16.5620 C   0  0  0  0  0  0  0  0  0  0  0  0
   11.0190   41.0350   16.1990 C   0  0  0  0  0  0  0  0  0  0  0  0
   10.3920   41.1960   14.9500 C   0  0  0  0  0  0  0  0  0  0  0  0
    9.8600   42.4550   14.6020 C   0  0  0  0  0  0  0  0  0  0  0  0
    9.2290   42.6390   13.3590 C   0  0  0  0  0  0  0  0  0  0  0  0
    9.1290   41.5620   12.4590 C   0  0  0  0  0  0  0  0  0  0  0  0
    9.6580   40.3030   12.8010 C   0  0  0  0  0  0  0  0  0  0  0  0
   10.2970   40.1000   14.0490 C   0  0  0  0  0  0  0  0  0  0  0  0
    9.9030   37.7860   11.0990 C   0  0  0  0  0  0  0  0  0  0  0  0
    8.6040   37.2500   11.2160 C   0  0  0  0  0  0  0  0  0  0  0  0
    7.7730   37.1740   10.0860 C   0  0  0  0  0  0  0  0  0  0  0  0
    8.2430   37.6330    8.8430 C   0  0  0  0  0  0  0  0  0  0  0  0
    7.4450   37.5660    7.7510 F   0  0  0  0  0  0  0  0  0  0  0  0
    9.5430   38.1630    8.7330 C   0  0  0  0  0  0  0  0  0  0  0  0
   10.4060   38.2470    9.8530 C   0  0  0  0  0  0  0  0  0  0  0  0
   12.5221   42.5672   12.8334 H   0  0  0  0  0  0  0  0  0  0  0  0
   11.3450   41.9151   11.6436 H   0  0  0  0  0  0  0  0  0  0  0  0
   13.0419   41.3259   11.6436 H   0  0  0  0  0  0  0  0  0  0  0  0
   12.1035   44.1655   10.9466 H   0  0  0  0  0  0  0  0  0  0  0  0
   13.8140   43.6279   11.0070 H   0  0  0  0  0  0  0  0  0  0  0  0
   14.8213   40.9625   10.2025 H   0  0  0  0  0  0  0  0  0  0  0  0
   15.0194   40.0861    8.6470 H   0  0  0  0  0  0  0  0  0  0  0  0
   14.6690   41.8479    8.6470 H   0  0  0  0  0  0  0  0  0  0  0  0
   12.1175   39.1145    7.9857 H   0  0  0  0  0  0  0  0  0  0  0  0
   13.5665   38.5967    8.9524 H   0  0  0  0  0  0  0  0  0  0  0  0
    9.7530   37.1834   13.5773 H   0  0  0  0  0  0  0  0  0  0  0  0
   11.5738   36.9728   13.7090 H   0  0  0  0  0  0  0  0  0  0  0  0
   11.8848   37.7271   15.9718 H   0  0  0  0  0  0  0  0  0  0  0  0
   12.0437   39.6633   17.5391 H   0  0  0  0  0  0  0  0  0  0  0  0
   11.0904   41.8863   16.8919 H   0  0  0  0  0  0  0  0  0  0  0  0
    9.9391   43.2965   15.3060 H   0  0  0  0  0  0  0  0  0  0  0  0
    8.8147   43.6221   13.0909 H   0  0  0  0  0  0  0  0  0  0  0  0
    8.6363   41.7041   11.4858 H   0  0  0  0  0  0  0  0  0  0  0  0
    9.5742   39.4671   12.0909 H   0  0  0  0  0  0  0  0  0  0  0  0
    8.2418   36.8918   12.1910 H   0  0  0  0  0  0  0  0  0  0  0  0
    6.7588   36.7571   10.1733 H   0  0  0  0  0  0  0  0  0  0  0  0
    9.8965   38.5201    7.7545 H   0  0  0  0  0  0  0  0  0  0  0  0
  1  2  1  0
  2  3  1  0
  3  4  1  0
  4  5  2  0
  4  6  1  0
  6  7  1  0
  6  8  1  0
  8  9  1  0
  9 10  2  0
 10 11  1  0
 11 12  2  0
 11 13  1  0
 10 14  1  0
 14 15  1  0
 15 16  1  0
 16 17  2  0
 17 18  1  0
 18 19  2  0
 19 20  1  0
 20 21  2  0
 21 22  1  0
 22 23  2  0
 23 24  1  0
 24 25  2  0
 14 26  1  0
 26 27  2  0
 27 28  1  0
 28 29  2  0
 29 30  1  0
 29 31  1  0
 31 32  2  0
 32  9  1  0
 25 16  1  0
 32 26  1  0
 25 20  1  0
  1 33  1  0
  1 34  1  0
  1 35  1  0
  2 36  1  0
  2 37  1  0
  7 38  1  0
  7 39  1  0
  7 40  1  0
  8 41  1  0
  8 42  1  0
 15 43  1  0
 15 44  1  0
 17 45  1  0
 18 46  1  0
 19 47  1  0
 21 48  1  0
 22 49  1  0
 23 50  1  0
 24 51  1  0
 27 52  1  0
 28 53  1  0
 31 54  1  0
M  CHG  1  13  -1
M  END
>  <meeko>  (170) 
{"free_energy": -3.45, "intermolecular_energy": -5.84, "internal_energy": -2.79, "cluster_size": 18, "cluster_id": 48, "rank_in_cluster": 18}

$$$$

     RDKit          3D

 54 57  0  0  0  0  0  0  0  0999 V2000
   10.6470   33.6530   15.2350 C   0  0  0  0  0  0  0  0  0  0  0  0
   11.4380   34.5270   16.2110 C   0  0  0  0  0  0  0  0  0  0  0  0
   10.6330   35.6210   16.6180 O   0  0  0  0  0  0  0  0  0  0  0  0
   10.7870   36.8290   16.0340 C   0  0  0  0  0  0  0  0  0  0  0  0
   11.6780   37.0790   15.2200 O   0  0  0  0  0  0  0  0  0  0  0  0
    9.8030   37.7200   16.4790 N   0  0  0  0  0  0  0  0  0  0  0  0
   10.1310   39.0610   16.9760 C   0  0  0  0  0  0  0  0  0  0  0  0
    8.3840   37.3400   16.4980 C   0  0  0  0  0  0  0  0  0  0  0  0
    7.8300   37.2670   17.9020 C   0  0  0  0  0  0  0  0  0  0  0  0
    6.5080   37.2270   18.3110 C   0  0  0  0  0  0  0  0  0  0  0  0
    5.2560   37.2100   17.4930 C   0  0  0  0  0  0  0  0  0  0  0  0
    4.7070   36.1120   17.2580 O   0  0  0  0  0  0  0  0  0  0  0  0
    4.7800   38.2720   17.0360 O   0  0  0  0  0  1  0  0  0  0  0  0
    6.4700   37.2270   19.7220 N   0  0  0  0  0  0  0  0  0  0  0  0
    5.2980   37.1820   20.6010 C   0  0  0  0  0  0  0  0  0  0  0  0
    4.4030   38.4270   20.5470 C   0  0  0  0  0  0  0  0  0  0  0  0
    4.9690   39.7260   20.4890 C   0  0  0  0  0  0  0  0  0  0  0  0
    4.1530   40.8690   20.4400 C   0  0  0  0  0  0  0  0  0  0  0  0
    2.7560   40.7360   20.4500 C   0  0  0  0  0  0  0  0  0  0  0  0
    2.1700   39.4580   20.5090 C   0  0  0  0  0  0  0  0  0  0  0  0
    0.7640   39.3430   20.5190 C   0  0  0  0  0  0  0  0  0  0  0  0
    0.1570   38.0760   20.5780 C   0  0  0  0  0  0  0  0  0  0  0  0
    0.9550   36.9190   20.6270 C   0  0  0  0  0  0  0  0  0  0  0  0
    2.3590   37.0270   20.6180 C   0  0  0  0  0  0  0  0  0  0  0  0
    2.9870   38.2960   20.5590 C   0  0  0  0  0  0  0  0  0  0  0  0
    7.7670   37.2670   20.2160 C   0  0  0  0  0  0  0  0  0  0  0  0
    8.2710   37.2980   21.5320 C   0  0  0  0  0  0  0  0  0  0  0  0
    9.6590   37.3280   21.7510 C   0  0  0  0  0  0  0  0  0  0  0  0
   10.5370   37.3250   20.6530 C   0  0  0  0  0  0  0  0  0  0  0  0
   11.8760   37.3500   20.8570 F   0  0  0  0  0  0  0  0  0  0  0  0
   10.0260   37.2990   19.3410 C   0  0  0  0  0  0  0  0  0  0  0  0
    8.6330   37.2750   19.0890 C   0  0  0  0  0  0  0  0  0  0  0  0
   10.0137   32.9532   15.8000 H   0  0  0  0  0  0  0  0  0  0  0  0
   10.0135   34.2915   14.6017 H   0  0  0  0  0  0  0  0  0  0  0  0
   11.3453   33.0861   14.6017 H   0  0  0  0  0  0  0  0  0  0  0  0
   11.7209   33.9313   17.0914 H   0  0  0  0  0  0  0  0  0  0  0  0
   12.3467   34.9016   15.7171 H   0  0  0  0  0  0  0  0  0  0  0  0
   10.1295   39.0549   18.0760 H   0  0  0  0  0  0  0  0  0  0  0  0
   11.1271   39.3533   16.6123 H   0  0  0  0  0  0  0  0  0  0  0  0
    9.3823   39.7801   16.6123 H   0  0  0  0  0  0  0  0  0  0  0  0
    7.8100   38.0864   15.9293 H   0  0  0  0  0  0  0  0  0  0  0  0
    8.2968   36.3397   16.0488 H   0  0  0  0  0  0  0  0  0  0  0  0
    4.6898   36.3111   20.3155 H   0  0  0  0  0  0  0  0  0  0  0  0
    5.6849   37.1241   21.6291 H   0  0  0  0  0  0  0  0  0  0  0  0
    6.0630   39.8406   20.4823 H   0  0  0  0  0  0  0  0  0  0  0  0
    4.6096   41.8687   20.3938 H   0  0  0  0  0  0  0  0  0  0  0  0
    2.1185   41.6316   20.4117 H   0  0  0  0  0  0  0  0  0  0  0  0
    0.1400   40.2481   20.4805 H   0  0  0  0  0  0  0  0  0  0  0  0
   -0.9396   37.9900   20.5858 H   0  0  0  0  0  0  0  0  0  0  0  0
    0.4813   35.9273   20.6725 H   0  0  0  0  0  0  0  0  0  0  0  0
    2.9749   36.1165   20.6572 H   0  0  0  0  0  0  0  0  0  0  0  0
    7.5787   37.2987   22.3868 H   0  0  0  0  0  0  0  0  0  0  0  0
   10.0564   37.3537   22.7764 H   0  0  0  0  0  0  0  0  0  0  0  0
   10.7255   37.2973   18.4921 H   0  0  0  0  0  0  0  0  0  0  0  0
  1  2  1  0
  2  3  1  0
  3  4  1  0
  4  5  2  0
  4  6  1  0
  6  7  1  0
  6  8  1  0
  8  9  1  0
  9 10  2  0
 10 11  1  0
 11 12  2  0
 11 13  1  0
 10 14  1  0
 14 15  1  0
 15 16  1  0
 16 17  2  0
 17 18  1  0
 18 19  2  0
 19 20  1  0
 20 21  2  0
 21 22  1  0
 22 23  2  0
 23 24  1  0
 24 25  2  0
 14 26  1  0
 26 27  2  0
 27 28  1  0
 28 29  2  0
 29 30  1  0
 29 31  1  0
 31 32  2  0
 32  9  1  0
 25 16  1  0
 32 26  1  0
 25 20  1  0
  1 33  1  0
  1 34  1  0
  1 35  1  0
  2 36  1  0
  2 37  1  0
  7 38  1  0
  7 39  1  0
  7 40  1  0
  8 41  1  0
  8 42  1  0
 15 43  1  0
 15 44  1  0
 17 45  1  0
 18 46  1  0
 19 47  1  0
 21 48  1  0
 22 49  1  0
 23 50  1  0
 24 51  1  0
 27 52  1  0
 28 53  1  0
 31 54  1  0
M  CHG  1  13  -1
M  END
>  <meeko>  (171) 
{"free_energy": -4.58, "intermolecular_energy": -6.97, "internal_energy": -1.62, "cluster_size": 12, "cluster_id": 64, "rank_in_cluster": 12}

$$$$

     RDKit          3D

 54 57  0  0  0  0  0  0  0  0999 V2000
    8.8580   36.2470   12.8710 C   0  0  0  0  0  0  0  0  0  0  0  0
    9.4350   35.3580   13.9760 C   0  0  0  0  0  0  0  0  0  0  0  0
    8.3980   34.5550   14.5180 O   0  0  0  0  0  0  0  0  0  0  0  0
    8.3950   34.2530   15.8340 C   0  0  0  0  0  0  0  0  0  0  0  0
    9.1450   33.4160   16.3390 O   0  0  0  0  0  0  0  0  0  0  0  0
    7.4400   35.0210   16.5120 N   0  0  0  0  0  0  0  0  0  0  0  0
    6.4670   34.4220   17.4330 C   0  0  0  0  0  0  0  0  0  0  0  0
    7.3480   36.4730   16.3100 C   0  0  0  0  0  0  0  0  0  0  0  0
    6.6490   37.1670   17.4560 C   0  0  0  0  0  0  0  0  0  0  0  0
    7.2040   37.8250   18.5390 C   0  0  0  0  0  0  0  0  0  0  0  0
    8.6430   38.0700   18.8710 C   0  0  0  0  0  0  0  0  0  0  0  0
    9.4050   38.4800   17.9700 O   0  0  0  0  0  0  0  0  0  0  0  0
    9.0760   37.8520   20.0230 O   0  0  0  0  0  1  0  0  0  0  0  0
    6.1650   38.2610   19.3880 N   0  0  0  0  0  0  0  0  0  0  0  0
    6.2680   39.0070   20.6450 C   0  0  0  0  0  0  0  0  0  0  0  0
    5.7960   40.4650   20.5700 C   0  0  0  0  0  0  0  0  0  0  0  0
    4.4990   40.8320   21.0090 C   0  0  0  0  0  0  0  0  0  0  0  0
    4.0630   42.1670   20.9420 C   0  0  0  0  0  0  0  0  0  0  0  0
    4.9150   43.1600   20.4330 C   0  0  0  0  0  0  0  0  0  0  0  0
    6.2070   42.8200   19.9890 C   0  0  0  0  0  0  0  0  0  0  0  0
    7.0500   43.8300   19.4800 C   0  0  0  0  0  0  0  0  0  0  0  0
    8.3440   43.5140   19.0310 C   0  0  0  0  0  0  0  0  0  0  0  0
    8.8000   42.1850   19.0900 C   0  0  0  0  0  0  0  0  0  0  0  0
    7.9630   41.1720   19.5970 C   0  0  0  0  0  0  0  0  0  0  0  0
    6.6570   41.4730   20.0540 C   0  0  0  0  0  0  0  0  0  0  0  0
    4.9430   37.8810   18.8480 C   0  0  0  0  0  0  0  0  0  0  0  0
    3.6190   38.0560   19.3020 C   0  0  0  0  0  0  0  0  0  0  0  0
    2.5460   37.5680   18.5380 C   0  0  0  0  0  0  0  0  0  0  0  0
    2.7990   36.9100   17.3220 C   0  0  0  0  0  0  0  0  0  0  0  0
    1.7690   36.4410   16.5790 F   0  0  0  0  0  0  0  0  0  0  0  0
    4.1240   36.7360   16.8770 C   0  0  0  0  0  0  0  0  0  0  0  0
    5.2260   37.2100   17.6290 C   0  0  0  0  0  0  0  0  0  0  0  0
    8.3123   37.0877   13.3243 H   0  0  0  0  0  0  0  0  0  0  0  0
    9.6769   36.6350   12.2474 H   0  0  0  0  0  0  0  0  0  0  0  0
    8.1702   35.6570   12.2474 H   0  0  0  0  0  0  0  0  0  0  0  0
   10.2196   34.7115   13.5560 H   0  0  0  0  0  0  0  0  0  0  0  0
    9.8678   35.9868   14.7680 H   0  0  0  0  0  0  0  0  0  0  0  0
    6.7781   34.6135   18.4705 H   0  0  0  0  0  0  0  0  0  0  0  0
    5.4759   34.8666   17.2594 H   0  0  0  0  0  0  0  0  0  0  0  0
    6.4176   33.3369   17.2594 H   0  0  0  0  0  0  0  0  0  0  0  0
    8.3646   36.8823   16.2154 H   0  0  0  0  0  0  0  0  0  0  0  0
    6.7580   36.6498   15.3986 H   0  0  0  0  0  0  0  0  0  0  0  0
    5.6594   38.4890   21.4009 H   0  0  0  0  0  0  0  0  0  0  0  0
    7.3381   39.0412   20.8973 H   0  0  0  0  0  0  0  0  0  0  0  0
    3.8236   40.0608   21.4080 H   0  0  0  0  0  0  0  0  0  0  0  0
    3.0537   42.4336   21.2886 H   0  0  0  0  0  0  0  0  0  0  0  0
    4.5729   44.2042   20.3811 H   0  0  0  0  0  0  0  0  0  0  0  0
    6.6932   44.8695   19.4342 H   0  0  0  0  0  0  0  0  0  0  0  0
    8.9983   44.3043   18.6345 H   0  0  0  0  0  0  0  0  0  0  0  0
    9.8125   41.9361   18.7395 H   0  0  0  0  0  0  0  0  0  0  0  0
    8.3280   40.1352   19.6384 H   0  0  0  0  0  0  0  0  0  0  0  0
    3.4270   38.5740   20.2532 H   0  0  0  0  0  0  0  0  0  0  0  0
    1.5122   37.7002   18.8898 H   0  0  0  0  0  0  0  0  0  0  0  0
    4.3069   36.2198   15.9230 H   0  0  0  0  0  0  0  0  0  0  0  0
  1  2  1  0
  2  3  1  0
  3  4  1  0
  4  5  2  0
  4  6  1  0
  6  7  1  0
  6  8  1  0
  8  9  1  0
  9 10  2  0
 10 11  1  0
 11 12  2  0
 11 13  1  0
 10 14  1  0
 14 15  1  0
 15 16  1  0
 16 17  2  0
 17 18  1  0
 18 19  2  0
 19 20  1  0
 20 21  2  0
 21 22  1  0
 22 23  2  0
 23 24  1  0
 24 25  2  0
 14 26  1  0
 26 27  2  0
 27 28  1  0
 28 29  2  0
 29 30  1  0
 29 31  1  0
 31 32  2  0
 32  9  1  0
 25 16  1  0
 32 26  1  0
 25 20  1  0
  1 33  1  0
  1 34  1  0
  1 35  1  0
  2 36  1  0
  2 37  1  0
  7 38  1  0
  7 39  1  0
  7 40  1  0
  8 41  1  0
  8 42  1  0
 15 43  1  0
 15 44  1  0
 17 45  1  0
 18 46  1  0
 19 47  1  0
 21 48  1  0
 22 49  1  0
 23 50  1  0
 24 51  1  0
 27 52  1  0
 28 53  1  0
 31 54  1  0
M  CHG  1  13  -1
M  END
>  <meeko>  (172) 
{"free_energy": -5.27, "intermolecular_energy": -7.66, "internal_energy": -1.78, "cluster_size": 5, "cluster_id": 148, "rank_in_cluster": 1}

$$$$

     RDKit          3D

 54 57  0  0  0  0  0  0  0  0999 V2000
   11.3290   39.3640   14.3250 C   0  0  0  0  0  0  0  0  0  0  0  0
   12.3730   38.4860   13.6310 C   0  0  0  0  0  0  0  0  0  0  0  0
   13.4070   39.3080   13.1160 O   0  0  0  0  0  0  0  0  0  0  0  0
   14.3730   38.7730   12.3390 C   0  0  0  0  0  0  0  0  0  0  0  0
   15.3430   38.1610   12.7890 O   0  0  0  0  0  0  0  0  0  0  0  0
   14.1030   39.0100   10.9850 N   0  0  0  0  0  0  0  0  0  0  0  0
   14.4390   38.0360    9.9400 C   0  0  0  0  0  0  0  0  0  0  0  0
   13.4900   40.2680   10.5390 C   0  0  0  0  0  0  0  0  0  0  0  0
   12.0140   40.3290   10.8530 C   0  0  0  0  0  0  0  0  0  0  0  0
   11.0350   39.3820   10.6050 C   0  0  0  0  0  0  0  0  0  0  0  0
   11.1570   38.0230    9.9930 C   0  0  0  0  0  0  0  0  0  0  0  0
   10.8240   37.8710    8.7980 O   0  0  0  0  0  0  0  0  0  0  0  0
   11.5660   37.0540   10.6690 O   0  0  0  0  0  1  0  0  0  0  0  0
    9.7880   39.9010   11.0130 N   0  0  0  0  0  0  0  0  0  0  0  0
    8.4720   39.2580   10.9560 C   0  0  0  0  0  0  0  0  0  0  0  0
    8.0810   38.7120    9.5760 C   0  0  0  0  0  0  0  0  0  0  0  0
    7.8680   39.5880    8.4820 C   0  0  0  0  0  0  0  0  0  0  0  0
    7.5100   39.0920    7.2170 C   0  0  0  0  0  0  0  0  0  0  0  0
    7.3550   37.7100    7.0220 C   0  0  0  0  0  0  0  0  0  0  0  0
    7.5600   36.8200    8.0930 C   0  0  0  0  0  0  0  0  0  0  0  0
    7.4000   35.4350    7.8790 C   0  0  0  0  0  0  0  0  0  0  0  0
    7.5980   34.5270    8.9350 C   0  0  0  0  0  0  0  0  0  0  0  0
    7.9580   35.0030   10.2080 C   0  0  0  0  0  0  0  0  0  0  0  0
    8.1190   36.3850   10.4280 C   0  0  0  0  0  0  0  0  0  0  0  0
    7.9230   37.3130    9.3760 C   0  0  0  0  0  0  0  0  0  0  0  0
    9.9680   41.1800   11.5220 C   0  0  0  0  0  0  0  0  0  0  0  0
    9.0560   42.1220   12.0410 C   0  0  0  0  0  0  0  0  0  0  0  0
    9.5200   43.3650   12.5050 C   0  0  0  0  0  0  0  0  0  0  0  0
   10.8930   43.6600   12.4500 C   0  0  0  0  0  0  0  0  0  0  0  0
   11.3470   44.8540   12.9000 F   0  0  0  0  0  0  0  0  0  0  0  0
   11.7970   42.7160   11.9270 C   0  0  0  0  0  0  0  0  0  0  0  0
   11.3590   41.4580   11.4460 C   0  0  0  0  0  0  0  0  0  0  0  0
   11.4388   39.2717   15.4156 H   0  0  0  0  0  0  0  0  0  0  0  0
   11.4770   40.4131   14.0291 H   0  0  0  0  0  0  0  0  0  0  0  0
   10.3209   39.0383   14.0291 H   0  0  0  0  0  0  0  0  0  0  0  0
   12.7954   37.7745   14.3558 H   0  0  0  0  0  0  0  0  0  0  0  0
   11.8995   37.9298   12.8086 H   0  0  0  0  0  0  0  0  0  0  0  0
   14.7638   37.0945   10.4070 H   0  0  0  0  0  0  0  0  0  0  0  0
   13.5535   37.8488    9.3148 H   0  0  0  0  0  0  0  0  0  0  0  0
   15.2516   38.4346    9.3148 H   0  0  0  0  0  0  0  0  0  0  0  0
   13.9940   41.1055   11.0436 H   0  0  0  0  0  0  0  0  0  0  0  0
   13.6046   40.3296    9.4467 H   0  0  0  0  0  0  0  0  0  0  0  0
    8.4695   38.4201   11.6687 H   0  0  0  0  0  0  0  0  0  0  0  0
    7.7357   40.0380   11.2001 H   0  0  0  0  0  0  0  0  0  0  0  0
    7.9847   40.6723    8.6256 H   0  0  0  0  0  0  0  0  0  0  0  0
    7.3511   39.7866    6.3790 H   0  0  0  0  0  0  0  0  0  0  0  0
    7.0732   37.3228    6.0317 H   0  0  0  0  0  0  0  0  0  0  0  0
    7.1193   35.0635    6.8824 H   0  0  0  0  0  0  0  0  0  0  0  0
    7.4715   33.4476    8.7653 H   0  0  0  0  0  0  0  0  0  0  0  0
    8.1144   34.2942   11.0345 H   0  0  0  0  0  0  0  0  0  0  0  0
    8.4000   36.7475   11.4278 H   0  0  0  0  0  0  0  0  0  0  0  0
    7.9828   41.8844   12.0827 H   0  0  0  0  0  0  0  0  0  0  0  0
    8.8119   44.1033   12.9092 H   0  0  0  0  0  0  0  0  0  0  0  0
   12.8687   42.9612   11.8911 H   0  0  0  0  0  0  0  0  0  0  0  0
  1  2  1  0
  2  3  1  0
  3  4  1  0
  4  5  2  0
  4  6  1  0
  6  7  1  0
  6  8  1  0
  8  9  1  0
  9 10  2  0
 10 11  1  0
 11 12  2  0
 11 13  1  0
 10 14  1  0
 14 15  1  0
 15 16  1  0
 16 17  2  0
 17 18  1  0
 18 19  2  0
 19 20  1  0
 20 21  2  0
 21 22  1  0
 22 23  2  0
 23 24  1  0
 24 25  2  0
 14 26  1  0
 26 27  2  0
 27 28  1  0
 28 29  2  0
 29 30  1  0
 29 31  1  0
 31 32  2  0
 32  9  1  0
 25 16  1  0
 32 26  1  0
 25 20  1  0
  1 33  1  0
  1 34  1  0
  1 35  1  0
  2 36  1  0
  2 37  1  0
  7 38  1  0
  7 39  1  0
  7 40  1  0
  8 41  1  0
  8 42  1  0
 15 43  1  0
 15 44  1  0
 17 45  1  0
 18 46  1  0
 19 47  1  0
 21 48  1  0
 22 49  1  0
 23 50  1  0
 24 51  1  0
 27 52  1  0
 28 53  1  0
 31 54  1  0
M  CHG  1  13  -1
M  END
>  <meeko>  (173) 
{"free_energy": -5.9, "intermolecular_energy": -8.29, "internal_energy": -2.41, "cluster_size": 417, "cluster_id": 2, "rank_in_cluster": 292}

$$$$

     RDKit          3D

 54 57  0  0  0  0  0  0  0  0999 V2000
   15.7930   44.5800   12.6910 C   0  0  0  0  0  0  0  0  0  0  0  0
   15.7040   43.5940   13.8580 C   0  0  0  0  0  0  0  0  0  0  0  0
   14.3940   43.0520   13.9120 O   0  0  0  0  0  0  0  0  0  0  0  0
   13.4090   43.5870   13.1610 C   0  0  0  0  0  0  0  0  0  0  0  0
   12.8600   44.6580   13.4260 O   0  0  0  0  0  0  0  0  0  0  0  0
   13.1230   42.7630   12.0650 N   0  0  0  0  0  0  0  0  0  0  0  0
   13.2170   43.2430   10.6820 C   0  0  0  0  0  0  0  0  0  0  0  0
   12.6840   41.3740   12.2500 C   0  0  0  0  0  0  0  0  0  0  0  0
   11.3300   41.1140   11.6310 C   0  0  0  0  0  0  0  0  0  0  0  0
   10.9970   40.2400   10.6110 C   0  0  0  0  0  0  0  0  0  0  0  0
   11.8630   39.2830    9.8550 C   0  0  0  0  0  0  0  0  0  0  0  0
   12.9850   38.9900   10.3210 O   0  0  0  0  0  0  0  0  0  0  0  0
   11.4790   38.8000    8.7670 O   0  0  0  0  0  1  0  0  0  0  0  0
    9.6240   40.3840   10.3200 N   0  0  0  0  0  0  0  0  0  0  0  0
    8.8230   39.6630    9.3260 C   0  0  0  0  0  0  0  0  0  0  0  0
    8.6120   38.1730    9.6250 C   0  0  0  0  0  0  0  0  0  0  0  0
    8.9680   37.6280   10.8840 C   0  0  0  0  0  0  0  0  0  0  0  0
    8.7760   36.2630   11.1620 C   0  0  0  0  0  0  0  0  0  0  0  0
    8.2260   35.4180   10.1850 C   0  0  0  0  0  0  0  0  0  0  0  0
    7.8670   35.9350    8.9270 C   0  0  0  0  0  0  0  0  0  0  0  0
    7.3160   35.0710    7.9570 C   0  0  0  0  0  0  0  0  0  0  0  0
    6.9500   35.5660    6.6930 C   0  0  0  0  0  0  0  0  0  0  0  0
    7.1330   36.9280    6.3950 C   0  0  0  0  0  0  0  0  0  0  0  0
    7.6830   37.7960    7.3580 C   0  0  0  0  0  0  0  0  0  0  0  0
    8.0570   37.3140    8.6370 C   0  0  0  0  0  0  0  0  0  0  0  0
    9.0780   41.3500   11.1550 C   0  0  0  0  0  0  0  0  0  0  0  0
    7.7720   41.8710   11.2610 C   0  0  0  0  0  0  0  0  0  0  0  0
    7.4860   42.8580   12.2190 C   0  0  0  0  0  0  0  0  0  0  0  0
    8.5070   43.3190   13.0700 C   0  0  0  0  0  0  0  0  0  0  0  0
    8.2370   44.2670   13.9980 F   0  0  0  0  0  0  0  0  0  0  0  0
    9.8090   42.7960   12.9560 C   0  0  0  0  0  0  0  0  0  0  0  0
   10.1290   41.8060   11.9950 C   0  0  0  0  0  0  0  0  0  0  0  0
   15.8854   45.6039   13.0823 H   0  0  0  0  0  0  0  0  0  0  0  0
   16.6733   44.3417   12.0759 H   0  0  0  0  0  0  0  0  0  0  0  0
   14.8843   44.5032   12.0759 H   0  0  0  0  0  0  0  0  0  0  0  0
   16.4320   42.7827   13.7105 H   0  0  0  0  0  0  0  0  0  0  0  0
   15.9272   44.1157   14.8004 H   0  0  0  0  0  0  0  0  0  0  0  0
   13.4284   44.3225   10.6821 H   0  0  0  0  0  0  0  0  0  0  0  0
   14.0279   42.7106   10.1634 H   0  0  0  0  0  0  0  0  0  0  0  0
   12.2651   43.0558   10.1634 H   0  0  0  0  0  0  0  0  0  0  0  0
   13.4212   40.7046   11.7826 H   0  0  0  0  0  0  0  0  0  0  0  0
   12.6016   41.1879   13.3310 H   0  0  0  0  0  0  0  0  0  0  0  0
    7.8351   40.1435    9.2693 H   0  0  0  0  0  0  0  0  0  0  0  0
    9.3854   39.7119    8.3819 H   0  0  0  0  0  0  0  0  0  0  0  0
    9.4008   38.2824   11.6550 H   0  0  0  0  0  0  0  0  0  0  0  0
    9.0568   35.8572   12.1451 H   0  0  0  0  0  0  0  0  0  0  0  0
    8.0756   34.3505   10.4035 H   0  0  0  0  0  0  0  0  0  0  0  0
    7.1722   34.0058    8.1907 H   0  0  0  0  0  0  0  0  0  0  0  0
    6.5215   34.8894    5.9389 H   0  0  0  0  0  0  0  0  0  0  0  0
    6.8457   37.3166    5.4068 H   0  0  0  0  0  0  0  0  0  0  0  0
    7.8238   38.8595    7.1148 H   0  0  0  0  0  0  0  0  0  0  0  0
    6.9776   41.5049   10.5940 H   0  0  0  0  0  0  0  0  0  0  0  0
    6.4689   43.2683   12.3033 H   0  0  0  0  0  0  0  0  0  0  0  0
   10.5967   43.1650   13.6294 H   0  0  0  0  0  0  0  0  0  0  0  0
  1  2  1  0
  2  3  1  0
  3  4  1  0
  4  5  2  0
  4  6  1  0
  6  7  1  0
  6  8  1  0
  8  9  1  0
  9 10  2  0
 10 11  1  0
 11 12  2  0
 11 13  1  0
 10 14  1  0
 14 15  1  0
 15 16  1  0
 16 17  2  0
 17 18  1  0
 18 19  2  0
 19 20  1  0
 20 21  2  0
 21 22  1  0
 22 23  2  0
 23 24  1  0
 24 25  2  0
 14 26  1  0
 26 27  2  0
 27 28  1  0
 28 29  2  0
 29 30  1  0
 29 31  1  0
 31 32  2  0
 32  9  1  0
 25 16  1  0
 32 26  1  0
 25 20  1  0
  1 33  1  0
  1 34  1  0
  1 35  1  0
  2 36  1  0
  2 37  1  0
  7 38  1  0
  7 39  1  0
  7 40  1  0
  8 41  1  0
  8 42  1  0
 15 43  1  0
 15 44  1  0
 17 45  1  0
 18 46  1  0
 19 47  1  0
 21 48  1  0
 22 49  1  0
 23 50  1  0
 24 51  1  0
 27 52  1  0
 28 53  1  0
 31 54  1  0
M  CHG  1  13  -1
M  END
>  <meeko>  (174) 
{"free_energy": -7.0, "intermolecular_energy": -9.39, "internal_energy": -1.74, "cluster_size": 74, "cluster_id": 18, "rank_in_cluster": 5}

$$$$

     RDKit          3D

 54 57  0  0  0  0  0  0  0  0999 V2000
    9.4690   42.2280   19.4590 C   0  0  0  0  0  0  0  0  0  0  0  0
    9.7120   42.0790   17.9550 C   0  0  0  0  0  0  0  0  0  0  0  0
    9.1840   40.8380   17.5170 O   0  0  0  0  0  0  0  0  0  0  0  0
    9.6550   39.6830   18.0320 C   0  0  0  0  0  0  0  0  0  0  0  0
    9.2730   39.2130   19.1050 O   0  0  0  0  0  0  0  0  0  0  0  0
   10.6110   39.1180   17.1780 N   0  0  0  0  0  0  0  0  0  0  0  0
   11.4660   38.0000   17.5930 C   0  0  0  0  0  0  0  0  0  0  0  0
   10.8260   39.6420   15.8220 C   0  0  0  0  0  0  0  0  0  0  0  0
   10.6100   38.5890   14.7610 C   0  0  0  0  0  0  0  0  0  0  0  0
   11.0020   38.6030   13.4340 C   0  0  0  0  0  0  0  0  0  0  0  0
   11.7770   39.6360   12.6790 C   0  0  0  0  0  0  0  0  0  0  0  0
   11.2240   40.7250   12.4130 O   0  0  0  0  0  0  0  0  0  0  0  0
   12.9480   39.4070   12.3050 O   0  0  0  0  0  1  0  0  0  0  0  0
   10.5250   37.4320   12.8070 N   0  0  0  0  0  0  0  0  0  0  0  0
   10.7020   37.0070   11.4150 C   0  0  0  0  0  0  0  0  0  0  0  0
    9.7430   37.6650   10.4140 C   0  0  0  0  0  0  0  0  0  0  0  0
    9.7250   39.0720   10.2430 C   0  0  0  0  0  0  0  0  0  0  0  0
    8.8500   39.6790    9.3270 C   0  0  0  0  0  0  0  0  0  0  0  0
    7.9730   38.8900    8.5650 C   0  0  0  0  0  0  0  0  0  0  0  0
    7.9710   37.4910    8.7170 C   0  0  0  0  0  0  0  0  0  0  0  0
    7.0830   36.7140    7.9440 C   0  0  0  0  0  0  0  0  0  0  0  0
    7.0630   35.3140    8.0800 C   0  0  0  0  0  0  0  0  0  0  0  0
    7.9330   34.6880    8.9910 C   0  0  0  0  0  0  0  0  0  0  0  0
    8.8210   35.4580    9.7660 C   0  0  0  0  0  0  0  0  0  0  0  0
    8.8540   36.8690    9.6420 C   0  0  0  0  0  0  0  0  0  0  0  0
    9.8260   36.6690   13.7340 C   0  0  0  0  0  0  0  0  0  0  0  0
    9.1500   35.4370   13.6180 C   0  0  0  0  0  0  0  0  0  0  0  0
    8.5220   34.8740   14.7410 C   0  0  0  0  0  0  0  0  0  0  0  0
    8.5740   35.5420   15.9760 C   0  0  0  0  0  0  0  0  0  0  0  0
    7.9740   35.0030   17.0640 F   0  0  0  0  0  0  0  0  0  0  0  0
    9.2480   36.7740   16.0830 C   0  0  0  0  0  0  0  0  0  0  0  0
    9.8840   37.3700   14.9680 C   0  0  0  0  0  0  0  0  0  0  0  0
   10.2794   41.7311   20.0124 H   0  0  0  0  0  0  0  0  0  0  0  0
    9.4460   43.2957   19.7227 H   0  0  0  0  0  0  0  0  0  0  0  0
    8.5070   41.7643   19.7227 H   0  0  0  0  0  0  0  0  0  0  0  0
    9.2139   42.9003   17.4189 H   0  0  0  0  0  0  0  0  0  0  0  0
   10.7923   42.1133   17.7505 H   0  0  0  0  0  0  0  0  0  0  0  0
   11.5015   37.9536   18.6914 H   0  0  0  0  0  0  0  0  0  0  0  0
   11.0553   37.0585   17.1993 H   0  0  0  0  0  0  0  0  0  0  0  0
   12.4822   38.1497   17.1993 H   0  0  0  0  0  0  0  0  0  0  0  0
   10.1235   40.4701   15.6470 H   0  0  0  0  0  0  0  0  0  0  0  0
   11.8703   39.9806   15.7531 H   0  0  0  0  0  0  0  0  0  0  0  0
   11.7315   37.2484   11.1119 H   0  0  0  0  0  0  0  0  0  0  0  0
   10.4835   35.9292   11.3903 H   0  0  0  0  0  0  0  0  0  0  0  0
   10.4069   39.6983   10.8369 H   0  0  0  0  0  0  0  0  0  0  0  0
    8.8517   40.7724    9.2065 H   0  0  0  0  0  0  0  0  0  0  0  0
    7.2871   39.3660    7.8488 H   0  0  0  0  0  0  0  0  0  0  0  0
    6.4033   37.2049    7.2319 H   0  0  0  0  0  0  0  0  0  0  0  0
    6.3693   34.7108    7.4759 H   0  0  0  0  0  0  0  0  0  0  0  0
    7.9195   33.5933    9.0982 H   0  0  0  0  0  0  0  0  0  0  0  0
    9.4968   34.9585   10.4758 H   0  0  0  0  0  0  0  0  0  0  0  0
    9.1145   34.9175   12.6491 H   0  0  0  0  0  0  0  0  0  0  0  0
    7.9917   33.9142   14.6541 H   0  0  0  0  0  0  0  0  0  0  0  0
    9.2809   37.2852   17.0564 H   0  0  0  0  0  0  0  0  0  0  0  0
  1  2  1  0
  2  3  1  0
  3  4  1  0
  4  5  2  0
  4  6  1  0
  6  7  1  0
  6  8  1  0
  8  9  1  0
  9 10  2  0
 10 11  1  0
 11 12  2  0
 11 13  1  0
 10 14  1  0
 14 15  1  0
 15 16  1  0
 16 17  2  0
 17 18  1  0
 18 19  2  0
 19 20  1  0
 20 21  2  0
 21 22  1  0
 22 23  2  0
 23 24  1  0
 24 25  2  0
 14 26  1  0
 26 27  2  0
 27 28  1  0
 28 29  2  0
 29 30  1  0
 29 31  1  0
 31 32  2  0
 32  9  1  0
 25 16  1  0
 32 26  1  0
 25 20  1  0
  1 33  1  0
  1 34  1  0
  1 35  1  0
  2 36  1  0
  2 37  1  0
  7 38  1  0
  7 39  1  0
  7 40  1  0
  8 41  1  0
  8 42  1  0
 15 43  1  0
 15 44  1  0
 17 45  1  0
 18 46  1  0
 19 47  1  0
 21 48  1  0
 22 49  1  0
 23 50  1  0
 24 51  1  0
 27 52  1  0
 28 53  1  0
 31 54  1  0
M  CHG  1  13  -1
M  END
>  <meeko>  (175) 
{"free_energy": -6.36, "intermolecular_energy": -8.75, "internal_energy": -1.46, "cluster_size": 326, "cluster_id": 11, "rank_in_cluster": 68}

$$$$

     RDKit          3D

 54 57  0  0  0  0  0  0  0  0999 V2000
    6.4880   35.4360   18.5860 C   0  0  0  0  0  0  0  0  0  0  0  0
    6.6190   36.7460   17.8040 C   0  0  0  0  0  0  0  0  0  0  0  0
    7.7470   36.6680   16.9480 O   0  0  0  0  0  0  0  0  0  0  0  0
    8.7960   35.8870   17.2810 C   0  0  0  0  0  0  0  0  0  0  0  0
    9.4870   36.0720   18.2840 O   0  0  0  0  0  0  0  0  0  0  0  0
    8.9660   34.8640   16.3390 N   0  0  0  0  0  0  0  0  0  0  0  0
    7.8780   33.9510   15.9740 C   0  0  0  0  0  0  0  0  0  0  0  0
   10.2630   34.6370   15.6860 C   0  0  0  0  0  0  0  0  0  0  0  0
   11.0520   35.9140   15.5220 C   0  0  0  0  0  0  0  0  0  0  0  0
   10.7920   36.9940   14.6970 C   0  0  0  0  0  0  0  0  0  0  0  0
    9.6470   37.2260   13.7630 C   0  0  0  0  0  0  0  0  0  0  0  0
    9.4550   36.4130   12.8340 O   0  0  0  0  0  0  0  0  0  0  0  0
    8.9070   38.2260   13.8980 O   0  0  0  0  0  1  0  0  0  0  0  0
   11.8390   37.9310   14.8310 N   0  0  0  0  0  0  0  0  0  0  0  0
   11.9910   39.2280   14.1650 C   0  0  0  0  0  0  0  0  0  0  0  0
   11.7440   39.2080   12.6510 C   0  0  0  0  0  0  0  0  0  0  0  0
   12.5320   38.3970   11.7970 C   0  0  0  0  0  0  0  0  0  0  0  0
   12.3090   38.3750   10.4100 C   0  0  0  0  0  0  0  0  0  0  0  0
   11.2940   39.1670    9.8490 C   0  0  0  0  0  0  0  0  0  0  0  0
   10.4990   39.9830   10.6760 C   0  0  0  0  0  0  0  0  0  0  0  0
    9.4840   40.7720   10.0960 C   0  0  0  0  0  0  0  0  0  0  0  0
    8.6770   41.5940   10.9020 C   0  0  0  0  0  0  0  0  0  0  0  0
    8.8840   41.6290   12.2930 C   0  0  0  0  0  0  0  0  0  0  0  0
    9.8960   40.8440   12.8780 C   0  0  0  0  0  0  0  0  0  0  0  0
   10.7170   40.0100   12.0810 C   0  0  0  0  0  0  0  0  0  0  0  0
   12.7700   37.4500   15.7430 C   0  0  0  0  0  0  0  0  0  0  0  0
   13.9870   37.9850   16.2140 C   0  0  0  0  0  0  0  0  0  0  0  0
   14.7430   37.2760   17.1630 C   0  0  0  0  0  0  0  0  0  0  0  0
   14.2790   36.0370   17.6380 C   0  0  0  0  0  0  0  0  0  0  0  0
   15.0010   35.3510   18.5550 F   0  0  0  0  0  0  0  0  0  0  0  0
   13.0650   35.5080   17.1600 C   0  0  0  0  0  0  0  0  0  0  0  0
   12.2840   36.1950   16.1990 C   0  0  0  0  0  0  0  0  0  0  0  0
    6.5093   35.6493   19.6649 H   0  0  0  0  0  0  0  0  0  0  0  0
    5.5366   34.9482   18.3274 H   0  0  0  0  0  0  0  0  0  0  0  0
    7.3240   34.7694   18.3274 H   0  0  0  0  0  0  0  0  0  0  0  0
    5.7119   36.9080   17.2032 H   0  0  0  0  0  0  0  0  0  0  0  0
    6.7450   37.5838   18.5055 H   0  0  0  0  0  0  0  0  0  0  0  0
    7.4082   33.5568   16.8872 H   0  0  0  0  0  0  0  0  0  0  0  0
    7.1275   34.4937   15.3805 H   0  0  0  0  0  0  0  0  0  0  0  0
    8.2822   33.1177   15.3805 H   0  0  0  0  0  0  0  0  0  0  0  0
   10.8490   33.9349   16.2973 H   0  0  0  0  0  0  0  0  0  0  0  0
   10.0686   34.2298   14.6828 H   0  0  0  0  0  0  0  0  0  0  0  0
   11.2770   39.9311   14.6187 H   0  0  0  0  0  0  0  0  0  0  0  0
   13.0411   39.5252   14.3030 H   0  0  0  0  0  0  0  0  0  0  0  0
   13.3309   37.7749   12.2268 H   0  0  0  0  0  0  0  0  0  0  0  0
   12.9296   37.7373    9.7633 H   0  0  0  0  0  0  0  0  0  0  0  0
   11.1201   39.1497    8.7630 H   0  0  0  0  0  0  0  0  0  0  0  0
    9.3231   40.7441    9.0082 H   0  0  0  0  0  0  0  0  0  0  0  0
    7.8861   42.2079   10.4463 H   0  0  0  0  0  0  0  0  0  0  0  0
    8.2536   42.2714   12.9254 H   0  0  0  0  0  0  0  0  0  0  0  0
   10.0505   40.8791   13.9665 H   0  0  0  0  0  0  0  0  0  0  0  0
   14.3438   38.9556   15.8391 H   0  0  0  0  0  0  0  0  0  0  0  0
   15.6934   37.6886   17.5324 H   0  0  0  0  0  0  0  0  0  0  0  0
   12.7147   34.5378   17.5422 H   0  0  0  0  0  0  0  0  0  0  0  0
  1  2  1  0
  2  3  1  0
  3  4  1  0
  4  5  2  0
  4  6  1  0
  6  7  1  0
  6  8  1  0
  8  9  1  0
  9 10  2  0
 10 11  1  0
 11 12  2  0
 11 13  1  0
 10 14  1  0
 14 15  1  0
 15 16  1  0
 16 17  2  0
 17 18  1  0
 18 19  2  0
 19 20  1  0
 20 21  2  0
 21 22  1  0
 22 23  2  0
 23 24  1  0
 24 25  2  0
 14 26  1  0
 26 27  2  0
 27 28  1  0
 28 29  2  0
 29 30  1  0
 29 31  1  0
 31 32  2  0
 32  9  1  0
 25 16  1  0
 32 26  1  0
 25 20  1  0
  1 33  1  0
  1 34  1  0
  1 35  1  0
  2 36  1  0
  2 37  1  0
  7 38  1  0
  7 39  1  0
  7 40  1  0
  8 41  1  0
  8 42  1  0
 15 43  1  0
 15 44  1  0
 17 45  1  0
 18 46  1  0
 19 47  1  0
 21 48  1  0
 22 49  1  0
 23 50  1  0
 24 51  1  0
 27 52  1  0
 28 53  1  0
 31 54  1  0
M  CHG  1  13  -1
M  END
>  <meeko>  (176) 
{"free_energy": -4.72, "intermolecular_energy": -7.11, "internal_energy": -1.96, "cluster_size": 52, "cluster_id": 33, "rank_in_cluster": 36}

$$$$

     RDKit          3D

 54 57  0  0  0  0  0  0  0  0999 V2000
    6.5340   44.2110   12.9600 C   0  0  0  0  0  0  0  0  0  0  0  0
    7.8770   43.6440   12.4920 C   0  0  0  0  0  0  0  0  0  0  0  0
    8.0670   42.3600   13.0630 O   0  0  0  0  0  0  0  0  0  0  0  0
    8.8910   42.2060   14.1220 C   0  0  0  0  0  0  0  0  0  0  0  0
    8.5560   42.4490   15.2820 O   0  0  0  0  0  0  0  0  0  0  0  0
   10.1430   41.7360   13.7050 N   0  0  0  0  0  0  0  0  0  0  0  0
   10.8690   42.3400   12.5830 C   0  0  0  0  0  0  0  0  0  0  0  0
   10.7810   40.5860   14.3600 C   0  0  0  0  0  0  0  0  0  0  0  0
   10.6810   39.3270   13.5310 C   0  0  0  0  0  0  0  0  0  0  0  0
   11.2060   39.0710   12.2760 C   0  0  0  0  0  0  0  0  0  0  0  0
   12.0470   39.9430   11.3980 C   0  0  0  0  0  0  0  0  0  0  0  0
   13.2020   40.2370   11.7740 O   0  0  0  0  0  0  0  0  0  0  0  0
   11.5950   40.3840   10.3190 O   0  0  0  0  0  1  0  0  0  0  0  0
   10.8020   37.7820   11.8700 N   0  0  0  0  0  0  0  0  0  0  0  0
   11.1220   37.0780   10.6240 C   0  0  0  0  0  0  0  0  0  0  0  0
    9.9120   36.4900    9.8870 C   0  0  0  0  0  0  0  0  0  0  0  0
    9.6610   35.0950    9.9000 C   0  0  0  0  0  0  0  0  0  0  0  0
    8.5540   34.5520    9.2260 C   0  0  0  0  0  0  0  0  0  0  0  0
    7.6770   35.3940    8.5230 C   0  0  0  0  0  0  0  0  0  0  0  0
    7.9060   36.7830    8.4930 C   0  0  0  0  0  0  0  0  0  0  0  0
    7.0160   37.6140    7.7820 C   0  0  0  0  0  0  0  0  0  0  0  0
    7.2250   39.0040    7.7380 C   0  0  0  0  0  0  0  0  0  0  0  0
    8.3260   39.5660    8.4070 C   0  0  0  0  0  0  0  0  0  0  0  0
    9.2190   38.7420    9.1180 C   0  0  0  0  0  0  0  0  0  0  0  0
    9.0240   37.3400    9.1730 C   0  0  0  0  0  0  0  0  0  0  0  0
   10.0180   37.2120   12.8640 C   0  0  0  0  0  0  0  0  0  0  0  0
    9.3640   35.9650   12.9480 C   0  0  0  0  0  0  0  0  0  0  0  0
    8.6290   35.6350   14.0980 C   0  0  0  0  0  0  0  0  0  0  0  0
    8.5510   36.5510   15.1620 C   0  0  0  0  0  0  0  0  0  0  0  0
    7.8470   36.2370   16.2750 F   0  0  0  0  0  0  0  0  0  0  0  0
    9.2030   37.7960   15.0700 C   0  0  0  0  0  0  0  0  0  0  0  0
    9.9460   38.1600   13.9200 C   0  0  0  0  0  0  0  0  0  0  0  0
    6.5044   44.2235   14.0595 H   0  0  0  0  0  0  0  0  0  0  0  0
    6.4157   45.2359   12.5784 H   0  0  0  0  0  0  0  0  0  0  0  0
    5.7170   43.5810   12.5784 H   0  0  0  0  0  0  0  0  0  0  0  0
    7.8795   43.5626   11.3950 H   0  0  0  0  0  0  0  0  0  0  0  0
    8.6906   44.3129   12.8092 H   0  0  0  0  0  0  0  0  0  0  0  0
   11.6605   42.9985   12.9703 H   0  0  0  0  0  0  0  0  0  0  0  0
   11.3200   41.5468   11.9686 H   0  0  0  0  0  0  0  0  0  0  0  0
   10.1711   42.9277   11.9686 H   0  0  0  0  0  0  0  0  0  0  0  0
   11.8436   40.8175   14.5252 H   0  0  0  0  0  0  0  0  0  0  0  0
   10.2570   40.4061   15.3103 H   0  0  0  0  0  0  0  0  0  0  0  0
   11.6218   37.7880    9.9487 H   0  0  0  0  0  0  0  0  0  0  0  0
   11.7571   36.2250   10.9052 H   0  0  0  0  0  0  0  0  0  0  0  0
   10.3434   34.4271   10.4462 H   0  0  0  0  0  0  0  0  0  0  0  0
    8.3743   33.4670    9.2490 H   0  0  0  0  0  0  0  0  0  0  0  0
    6.8107   34.9682    7.9955 H   0  0  0  0  0  0  0  0  0  0  0  0
    6.1543   37.1731    7.2594 H   0  0  0  0  0  0  0  0  0  0  0  0
    6.5291   39.6493    7.1818 H   0  0  0  0  0  0  0  0  0  0  0  0
    8.4904   40.6532    8.3749 H   0  0  0  0  0  0  0  0  0  0  0  0
   10.0782   39.1921    9.6369 H   0  0  0  0  0  0  0  0  0  0  0  0
    9.4297   35.2516   12.1132 H   0  0  0  0  0  0  0  0  0  0  0  0
    8.1164   34.6641   14.1663 H   0  0  0  0  0  0  0  0  0  0  0  0
    9.1337   38.5021   15.9106 H   0  0  0  0  0  0  0  0  0  0  0  0
  1  2  1  0
  2  3  1  0
  3  4  1  0
  4  5  2  0
  4  6  1  0
  6  7  1  0
  6  8  1  0
  8  9  1  0
  9 10  2  0
 10 11  1  0
 11 12  2  0
 11 13  1  0
 10 14  1  0
 14 15  1  0
 15 16  1  0
 16 17  2  0
 17 18  1  0
 18 19  2  0
 19 20  1  0
 20 21  2  0
 21 22  1  0
 22 23  2  0
 23 24  1  0
 24 25  2  0
 14 26  1  0
 26 27  2  0
 27 28  1  0
 28 29  2  0
 29 30  1  0
 29 31  1  0
 31 32  2  0
 32  9  1  0
 25 16  1  0
 32 26  1  0
 25 20  1  0
  1 33  1  0
  1 34  1  0
  1 35  1  0
  2 36  1  0
  2 37  1  0
  7 38  1  0
  7 39  1  0
  7 40  1  0
  8 41  1  0
  8 42  1  0
 15 43  1  0
 15 44  1  0
 17 45  1  0
 18 46  1  0
 19 47  1  0
 21 48  1  0
 22 49  1  0
 23 50  1  0
 24 51  1  0
 27 52  1  0
 28 53  1  0
 31 54  1  0
M  CHG  1  13  -1
M  END
>  <meeko>  (177) 
{"free_energy": -6.42, "intermolecular_energy": -8.8, "internal_energy": -1.74, "cluster_size": 76, "cluster_id": 21, "rank_in_cluster": 10}

$$$$

     RDKit          3D

 54 57  0  0  0  0  0  0  0  0999 V2000
   15.4720   34.3860    8.7900 C   0  0  0  0  0  0  0  0  0  0  0  0
   15.4900   34.9340   10.2190 C   0  0  0  0  0  0  0  0  0  0  0  0
   14.6160   36.0480   10.3030 O   0  0  0  0  0  0  0  0  0  0  0  0
   15.0610   37.2820    9.9830 C   0  0  0  0  0  0  0  0  0  0  0  0
   15.4220   37.5990    8.8480 O   0  0  0  0  0  0  0  0  0  0  0  0
   15.0420   38.1180   11.1070 N   0  0  0  0  0  0  0  0  0  0  0  0
   15.8170   37.8180   12.3160 C   0  0  0  0  0  0  0  0  0  0  0  0
   14.2150   39.3310   11.1400 C   0  0  0  0  0  0  0  0  0  0  0  0
   12.8780   39.0940   11.8010 C   0  0  0  0  0  0  0  0  0  0  0  0
   11.7180   38.5760   11.2520 C   0  0  0  0  0  0  0  0  0  0  0  0
   11.4620   38.0720    9.8660 C   0  0  0  0  0  0  0  0  0  0  0  0
   11.1210   36.8790    9.7150 O   0  0  0  0  0  0  0  0  0  0  0  0
   11.6050   38.8250    8.8780 O   0  0  0  0  0  1  0  0  0  0  0  0
   10.7010   38.5990   12.2300 N   0  0  0  0  0  0  0  0  0  0  0  0
    9.3130   38.1440   12.1120 C   0  0  0  0  0  0  0  0  0  0  0  0
    8.7020   38.2970   10.7130 C   0  0  0  0  0  0  0  0  0  0  0  0
    8.6250   39.5680   10.0890 C   0  0  0  0  0  0  0  0  0  0  0  0
    8.0650   39.7120    8.8080 C   0  0  0  0  0  0  0  0  0  0  0  0
    7.5700   38.5890    8.1270 C   0  0  0  0  0  0  0  0  0  0  0  0
    7.6330   37.3160    8.7260 C   0  0  0  0  0  0  0  0  0  0  0  0
    7.1300   36.1990    8.0280 C   0  0  0  0  0  0  0  0  0  0  0  0
    7.1820   34.9190    8.6070 C   0  0  0  0  0  0  0  0  0  0  0  0
    7.7390   34.7530    9.8880 C   0  0  0  0  0  0  0  0  0  0  0  0
    8.2420   35.8650   10.5910 C   0  0  0  0  0  0  0  0  0  0  0  0
    8.1980   37.1610   10.0220 C   0  0  0  0  0  0  0  0  0  0  0  0
   11.2110   39.1330   13.4070 C   0  0  0  0  0  0  0  0  0  0  0  0
   10.6150   39.3850   14.6600 C   0  0  0  0  0  0  0  0  0  0  0  0
   11.3800   39.9350   15.7020 C   0  0  0  0  0  0  0  0  0  0  0  0
   12.7370   40.2310   15.4880 C   0  0  0  0  0  0  0  0  0  0  0  0
   13.4810   40.7580   16.4900 F   0  0  0  0  0  0  0  0  0  0  0  0
   13.3240   39.9800   14.2330 C   0  0  0  0  0  0  0  0  0  0  0  0
   12.5780   39.4330   13.1620 C   0  0  0  0  0  0  0  0  0  0  0  0
   15.4359   33.2870    8.8192 H   0  0  0  0  0  0  0  0  0  0  0  0
   14.5859   34.7681    8.2619 H   0  0  0  0  0  0  0  0  0  0  0  0
   16.3812   34.7091    8.2619 H   0  0  0  0  0  0  0  0  0  0  0  0
   15.1570   34.1518   10.9171 H   0  0  0  0  0  0  0  0  0  0  0  0
   16.5116   35.2455   10.4822 H   0  0  0  0  0  0  0  0  0  0  0  0
   15.2137   38.0515   13.2056 H   0  0  0  0  0  0  0  0  0  0  0  0
   16.0850   36.7512   12.3244 H   0  0  0  0  0  0  0  0  0  0  0  0
   16.7334   38.4263   12.3244 H   0  0  0  0  0  0  0  0  0  0  0  0
   14.7528   40.1110   11.6989 H   0  0  0  0  0  0  0  0  0  0  0  0
   14.0273   39.6393   10.1009 H   0  0  0  0  0  0  0  0  0  0  0  0
    9.2775   37.0793   12.3862 H   0  0  0  0  0  0  0  0  0  0  0  0
    8.7194   38.7847   12.7807 H   0  0  0  0  0  0  0  0  0  0  0  0
    9.0092   40.4543   10.6153 H   0  0  0  0  0  0  0  0  0  0  0  0
    8.0146   40.7056    8.3388 H   0  0  0  0  0  0  0  0  0  0  0  0
    7.1324   38.7033    7.1243 H   0  0  0  0  0  0  0  0  0  0  0  0
    6.6950   36.3296    7.0261 H   0  0  0  0  0  0  0  0  0  0  0  0
    6.7882   34.0497    8.0599 H   0  0  0  0  0  0  0  0  0  0  0  0
    7.7818   33.7519   10.3419 H   0  0  0  0  0  0  0  0  0  0  0  0
    8.6738   35.7252   11.5930 H   0  0  0  0  0  0  0  0  0  0  0  0
    9.5523   39.1512   14.8213 H   0  0  0  0  0  0  0  0  0  0  0  0
   10.9190   40.1331   16.6809 H   0  0  0  0  0  0  0  0  0  0  0  0
   14.3879   40.2147   14.0814 H   0  0  0  0  0  0  0  0  0  0  0  0
  1  2  1  0
  2  3  1  0
  3  4  1  0
  4  5  2  0
  4  6  1  0
  6  7  1  0
  6  8  1  0
  8  9  1  0
  9 10  2  0
 10 11  1  0
 11 12  2  0
 11 13  1  0
 10 14  1  0
 14 15  1  0
 15 16  1  0
 16 17  2  0
 17 18  1  0
 18 19  2  0
 19 20  1  0
 20 21  2  0
 21 22  1  0
 22 23  2  0
 23 24  1  0
 24 25  2  0
 14 26  1  0
 26 27  2  0
 27 28  1  0
 28 29  2  0
 29 30  1  0
 29 31  1  0
 31 32  2  0
 32  9  1  0
 25 16  1  0
 32 26  1  0
 25 20  1  0
  1 33  1  0
  1 34  1  0
  1 35  1  0
  2 36  1  0
  2 37  1  0
  7 38  1  0
  7 39  1  0
  7 40  1  0
  8 41  1  0
  8 42  1  0
 15 43  1  0
 15 44  1  0
 17 45  1  0
 18 46  1  0
 19 47  1  0
 21 48  1  0
 22 49  1  0
 23 50  1  0
 24 51  1  0
 27 52  1  0
 28 53  1  0
 31 54  1  0
M  CHG  1  13  -1
M  END
>  <meeko>  (178) 
{"free_energy": -7.12, "intermolecular_energy": -9.51, "internal_energy": -1.64, "cluster_size": 292, "cluster_id": 10, "rank_in_cluster": 11}

$$$$

     RDKit          3D

 54 57  0  0  0  0  0  0  0  0999 V2000
   12.3280   42.4180    9.0940 C   0  0  0  0  0  0  0  0  0  0  0  0
   11.2740   41.4810    9.6880 C   0  0  0  0  0  0  0  0  0  0  0  0
   10.4940   42.1950   10.6330 O   0  0  0  0  0  0  0  0  0  0  0  0
   10.8790   42.2480   11.9260 C   0  0  0  0  0  0  0  0  0  0  0  0
   12.0140   42.5690   12.2820 O   0  0  0  0  0  0  0  0  0  0  0  0
    9.8170   41.8990   12.7700 N   0  0  0  0  0  0  0  0  0  0  0  0
    8.9120   42.9020   13.3410 C   0  0  0  0  0  0  0  0  0  0  0  0
    9.5750   40.5010   13.1520 C   0  0  0  0  0  0  0  0  0  0  0  0
   10.3100   39.5290   12.2590 C   0  0  0  0  0  0  0  0  0  0  0  0
   11.6440   39.1620   12.2900 C   0  0  0  0  0  0  0  0  0  0  0  0
   12.7290   39.5870   13.2280 C   0  0  0  0  0  0  0  0  0  0  0  0
   12.5250   39.5040   14.4580 O   0  0  0  0  0  0  0  0  0  0  0  0
   13.8100   40.0360   12.7890 O   0  0  0  0  0  1  0  0  0  0  0  0
   11.8950   38.2730   11.2230 N   0  0  0  0  0  0  0  0  0  0  0  0
   13.1550   37.6150   10.8630 C   0  0  0  0  0  0  0  0  0  0  0  0
   14.1540   38.5040   10.1110 C   0  0  0  0  0  0  0  0  0  0  0  0
   13.7610   39.2210    8.9530 C   0  0  0  0  0  0  0  0  0  0  0  0
   14.6730   40.0360    8.2620 C   0  0  0  0  0  0  0  0  0  0  0  0
   15.9980   40.1490    8.7140 C   0  0  0  0  0  0  0  0  0  0  0  0
   16.4130   39.4460    9.8610 C   0  0  0  0  0  0  0  0  0  0  0  0
   17.7470   39.5700   10.3010 C   0  0  0  0  0  0  0  0  0  0  0  0
   18.1850   38.8770   11.4430 C   0  0  0  0  0  0  0  0  0  0  0  0
   17.2870   38.0570   12.1500 C   0  0  0  0  0  0  0  0  0  0  0  0
   15.9540   37.9280   11.7150 C   0  0  0  0  0  0  0  0  0  0  0  0
   15.4960   38.6190   10.5660 C   0  0  0  0  0  0  0  0  0  0  0  0
   10.7210   38.0720   10.5080 C   0  0  0  0  0  0  0  0  0  0  0  0
   10.4390   37.2990    9.3630 C   0  0  0  0  0  0  0  0  0  0  0  0
    9.1350   37.2680    8.8420 C   0  0  0  0  0  0  0  0  0  0  0  0
    8.1170   38.0090    9.4690 C   0  0  0  0  0  0  0  0  0  0  0  0
    6.8570   37.9800    8.9740 F   0  0  0  0  0  0  0  0  0  0  0  0
    8.4070   38.7810   10.6100 C   0  0  0  0  0  0  0  0  0  0  0  0
    9.7140   38.8380   11.1530 C   0  0  0  0  0  0  0  0  0  0  0  0
   12.8814   42.9100    9.9074 H   0  0  0  0  0  0  0  0  0  0  0  0
   13.0269   41.8375    8.4738 H   0  0  0  0  0  0  0  0  0  0  0  0
   11.8334   43.1800    8.4738 H   0  0  0  0  0  0  0  0  0  0  0  0
   10.6239   41.1027    8.8853 H   0  0  0  0  0  0  0  0  0  0  0  0
   11.7704   40.6337   10.1837 H   0  0  0  0  0  0  0  0  0  0  0  0
    8.9562   42.8530   14.4390 H   0  0  0  0  0  0  0  0  0  0  0  0
    9.2173   43.9043   13.0061 H   0  0  0  0  0  0  0  0  0  0  0  0
    7.8837   42.7010   13.0061 H   0  0  0  0  0  0  0  0  0  0  0  0
    9.9121   40.3538   14.1887 H   0  0  0  0  0  0  0  0  0  0  0  0
    8.4975   40.3049   13.0492 H   0  0  0  0  0  0  0  0  0  0  0  0
   13.6361   37.2674   11.7891 H   0  0  0  0  0  0  0  0  0  0  0  0
   12.8916   36.7967   10.1767 H   0  0  0  0  0  0  0  0  0  0  0  0
   12.7260   39.1379    8.5899 H   0  0  0  0  0  0  0  0  0  0  0  0
   14.3491   40.5861    7.3662 H   0  0  0  0  0  0  0  0  0  0  0  0
   16.7115   40.7868    8.1718 H   0  0  0  0  0  0  0  0  0  0  0  0
   18.4483   40.2121    9.7479 H   0  0  0  0  0  0  0  0  0  0  0  0
   19.2266   38.9757   11.7826 H   0  0  0  0  0  0  0  0  0  0  0  0
   17.6269   37.5152   13.0449 H   0  0  0  0  0  0  0  0  0  0  0  0
   15.2600   37.2831   12.2739 H   0  0  0  0  0  0  0  0  0  0  0  0
   11.2394   36.7208    8.8782 H   0  0  0  0  0  0  0  0  0  0  0  0
    8.9110   36.6673    7.9482 H   0  0  0  0  0  0  0  0  0  0  0  0
    7.5999   39.3532   11.0909 H   0  0  0  0  0  0  0  0  0  0  0  0
  1  2  1  0
  2  3  1  0
  3  4  1  0
  4  5  2  0
  4  6  1  0
  6  7  1  0
  6  8  1  0
  8  9  1  0
  9 10  2  0
 10 11  1  0
 11 12  2  0
 11 13  1  0
 10 14  1  0
 14 15  1  0
 15 16  1  0
 16 17  2  0
 17 18  1  0
 18 19  2  0
 19 20  1  0
 20 21  2  0
 21 22  1  0
 22 23  2  0
 23 24  1  0
 24 25  2  0
 14 26  1  0
 26 27  2  0
 27 28  1  0
 28 29  2  0
 29 30  1  0
 29 31  1  0
 31 32  2  0
 32  9  1  0
 25 16  1  0
 32 26  1  0
 25 20  1  0
  1 33  1  0
  1 34  1  0
  1 35  1  0
  2 36  1  0
  2 37  1  0
  7 38  1  0
  7 39  1  0
  7 40  1  0
  8 41  1  0
  8 42  1  0
 15 43  1  0
 15 44  1  0
 17 45  1  0
 18 46  1  0
 19 47  1  0
 21 48  1  0
 22 49  1  0
 23 50  1  0
 24 51  1  0
 27 52  1  0
 28 53  1  0
 31 54  1  0
M  CHG  1  13  -1
M  END
>  <meeko>  (179) 
{"free_energy": -4.0, "intermolecular_energy": -6.38, "internal_energy": -2.62, "cluster_size": 15, "cluster_id": 199, "rank_in_cluster": 10}

$$$$

     RDKit          3D

 54 57  0  0  0  0  0  0  0  0999 V2000
    7.1450   36.7900   20.3760 C   0  0  0  0  0  0  0  0  0  0  0  0
    6.1880   35.6710   19.9580 C   0  0  0  0  0  0  0  0  0  0  0  0
    6.8810   34.7450   19.1380 O   0  0  0  0  0  0  0  0  0  0  0  0
    6.7360   34.7900   17.7960 C   0  0  0  0  0  0  0  0  0  0  0  0
    6.1520   33.9190   17.1490 O   0  0  0  0  0  0  0  0  0  0  0  0
    7.3290   35.9470   17.2750 N   0  0  0  0  0  0  0  0  0  0  0  0
    6.5430   37.0010   16.6250 C   0  0  0  0  0  0  0  0  0  0  0  0
    8.7830   36.1490   17.3310 C   0  0  0  0  0  0  0  0  0  0  0  0
    9.3150   36.8240   16.0880 C   0  0  0  0  0  0  0  0  0  0  0  0
    9.5790   36.2710   14.8470 C   0  0  0  0  0  0  0  0  0  0  0  0
    9.3840   34.8670   14.3680 C   0  0  0  0  0  0  0  0  0  0  0  0
    8.2440   34.5110   13.9990 O   0  0  0  0  0  0  0  0  0  0  0  0
   10.3400   34.0610   14.3540 O   0  0  0  0  0  1  0  0  0  0  0  0
   10.1250   37.2690   14.0120 N   0  0  0  0  0  0  0  0  0  0  0  0
   10.5480   37.1550   12.6130 C   0  0  0  0  0  0  0  0  0  0  0  0
    9.6750   37.9220   11.6110 C   0  0  0  0  0  0  0  0  0  0  0  0
    9.6070   39.3370   11.6420 C   0  0  0  0  0  0  0  0  0  0  0  0
    8.8090   40.0430   10.7250 C   0  0  0  0  0  0  0  0  0  0  0  0
    8.0620   39.3470    9.7620 C   0  0  0  0  0  0  0  0  0  0  0  0
    8.1120   37.9410    9.7120 C   0  0  0  0  0  0  0  0  0  0  0  0
    7.3540   37.2580    8.7380 C   0  0  0  0  0  0  0  0  0  0  0  0
    7.3880   35.8540    8.6690 C   0  0  0  0  0  0  0  0  0  0  0  0
    8.1810   35.1290    9.5770 C   0  0  0  0  0  0  0  0  0  0  0  0
    8.9390   35.8050   10.5520 C   0  0  0  0  0  0  0  0  0  0  0  0
    8.9170   37.2190   10.6350 C   0  0  0  0  0  0  0  0  0  0  0  0
   10.2100   38.4610   14.7190 C   0  0  0  0  0  0  0  0  0  0  0  0
   10.6890   39.7370   14.3560 C   0  0  0  0  0  0  0  0  0  0  0  0
   10.6500   40.7900   15.2850 C   0  0  0  0  0  0  0  0  0  0  0  0
   10.1310   40.5660   16.5720 C   0  0  0  0  0  0  0  0  0  0  0  0
   10.0870   41.5780   17.4700 F   0  0  0  0  0  0  0  0  0  0  0  0
    9.6580   39.2880   16.9280 C   0  0  0  0  0  0  0  0  0  0  0  0
    9.6910   38.2050   16.0160 C   0  0  0  0  0  0  0  0  0  0  0  0
    7.1902   36.8428   21.4738 H   0  0  0  0  0  0  0  0  0  0  0  0
    8.1489   36.5819   19.9773 H   0  0  0  0  0  0  0  0  0  0  0  0
    6.7837   37.7494   19.9773 H   0  0  0  0  0  0  0  0  0  0  0  0
    5.8095   35.1572   20.8539 H   0  0  0  0  0  0  0  0  0  0  0  0
    5.3426   36.0983   19.3988 H   0  0  0  0  0  0  0  0  0  0  0  0
    6.0717   37.6329   17.3922 H   0  0  0  0  0  0  0  0  0  0  0  0
    7.2039   37.6172   15.9977 H   0  0  0  0  0  0  0  0  0  0  0  0
    5.7639   36.5434   15.9977 H   0  0  0  0  0  0  0  0  0  0  0  0
    9.0200   36.7759   18.2033 H   0  0  0  0  0  0  0  0  0  0  0  0
    9.2582   35.1598   17.4072 H   0  0  0  0  0  0  0  0  0  0  0  0
   11.5761   37.5382   12.5343 H   0  0  0  0  0  0  0  0  0  0  0  0
   10.4594   36.0908   12.3490 H   0  0  0  0  0  0  0  0  0  0  0  0
   10.1871   39.8911   12.3946 H   0  0  0  0  0  0  0  0  0  0  0  0
    8.7700   41.1417   10.7622 H   0  0  0  0  0  0  0  0  0  0  0  0
    7.4370   39.9005    9.0458 H   0  0  0  0  0  0  0  0  0  0  0  0
    6.7336   37.8262    8.0293 H   0  0  0  0  0  0  0  0  0  0  0  0
    6.7965   35.3244    7.9076 H   0  0  0  0  0  0  0  0  0  0  0  0
    8.2089   34.0306    9.5251 H   0  0  0  0  0  0  0  0  0  0  0  0
    9.5554   35.2285   11.2575 H   0  0  0  0  0  0  0  0  0  0  0  0
   11.0925   39.9073   13.3470 H   0  0  0  0  0  0  0  0  0  0  0  0
   11.0242   41.7862   15.0063 H   0  0  0  0  0  0  0  0  0  0  0  0
    9.2534   39.1273   17.9382 H   0  0  0  0  0  0  0  0  0  0  0  0
  1  2  1  0
  2  3  1  0
  3  4  1  0
  4  5  2  0
  4  6  1  0
  6  7  1  0
  6  8  1  0
  8  9  1  0
  9 10  2  0
 10 11  1  0
 11 12  2  0
 11 13  1  0
 10 14  1  0
 14 15  1  0
 15 16  1  0
 16 17  2  0
 17 18  1  0
 18 19  2  0
 19 20  1  0
 20 21  2  0
 21 22  1  0
 22 23  2  0
 23 24  1  0
 24 25  2  0
 14 26  1  0
 26 27  2  0
 27 28  1  0
 28 29  2  0
 29 30  1  0
 29 31  1  0
 31 32  2  0
 32  9  1  0
 25 16  1  0
 32 26  1  0
 25 20  1  0
  1 33  1  0
  1 34  1  0
  1 35  1  0
  2 36  1  0
  2 37  1  0
  7 38  1  0
  7 39  1  0
  7 40  1  0
  8 41  1  0
  8 42  1  0
 15 43  1  0
 15 44  1  0
 17 45  1  0
 18 46  1  0
 19 47  1  0
 21 48  1  0
 22 49  1  0
 23 50  1  0
 24 51  1  0
 27 52  1  0
 28 53  1  0
 31 54  1  0
M  CHG  1  13  -1
M  END
>  <meeko>  (180) 
{"free_energy": -7.73, "intermolecular_energy": -10.11, "internal_energy": -1.66, "cluster_size": 163, "cluster_id": 4, "rank_in_cluster": 5}

$$$$

     RDKit          3D

 54 57  0  0  0  0  0  0  0  0999 V2000
   15.3910   40.5010   14.6310 C   0  0  0  0  0  0  0  0  0  0  0  0
   15.1930   39.4030   15.6800 C   0  0  0  0  0  0  0  0  0  0  0  0
   14.3230   39.8790   16.6940 O   0  0  0  0  0  0  0  0  0  0  0  0
   12.9900   39.9070   16.4830 C   0  0  0  0  0  0  0  0  0  0  0  0
   12.2730   40.8580   16.7990 O   0  0  0  0  0  0  0  0  0  0  0  0
   12.5650   38.7250   15.8620 N   0  0  0  0  0  0  0  0  0  0  0  0
   11.9460   38.7210   14.5320 C   0  0  0  0  0  0  0  0  0  0  0  0
   12.6950   37.4240   16.5320 C   0  0  0  0  0  0  0  0  0  0  0  0
   11.7710   37.2970   17.7200 C   0  0  0  0  0  0  0  0  0  0  0  0
   10.4040   37.5020   17.7800 C   0  0  0  0  0  0  0  0  0  0  0  0
    9.4450   37.8710   16.6920 C   0  0  0  0  0  0  0  0  0  0  0  0
    9.2460   39.0820   16.4530 O   0  0  0  0  0  0  0  0  0  0  0  0
    8.8420   36.9860   16.0480 O   0  0  0  0  0  1  0  0  0  0  0  0
    9.9770   37.3300   19.1150 N   0  0  0  0  0  0  0  0  0  0  0  0
    8.6200   37.4370   19.6570 C   0  0  0  0  0  0  0  0  0  0  0  0
    7.5450   36.6870   18.8590 C   0  0  0  0  0  0  0  0  0  0  0  0
    7.8040   35.4010   18.3230 C   0  0  0  0  0  0  0  0  0  0  0  0
    6.8230   34.7110   17.5910 C   0  0  0  0  0  0  0  0  0  0  0  0
    5.5640   35.2950   17.3790 C   0  0  0  0  0  0  0  0  0  0  0  0
    5.2830   36.5730   17.9000 C   0  0  0  0  0  0  0  0  0  0  0  0
    4.0130   37.1440   17.6770 C   0  0  0  0  0  0  0  0  0  0  0  0
    3.7100   38.4190   18.1880 C   0  0  0  0  0  0  0  0  0  0  0  0
    4.6780   39.1250   18.9240 C   0  0  0  0  0  0  0  0  0  0  0  0
    5.9480   38.5600   19.1490 C   0  0  0  0  0  0  0  0  0  0  0  0
    6.2700   37.2770   18.6420 C   0  0  0  0  0  0  0  0  0  0  0  0
   11.0720   37.0150   19.9080 C   0  0  0  0  0  0  0  0  0  0  0  0
   11.1890   36.7640   21.2910 C   0  0  0  0  0  0  0  0  0  0  0  0
   12.4440   36.4540   21.8430 C   0  0  0  0  0  0  0  0  0  0  0  0
   13.5750   36.3950   21.0110 C   0  0  0  0  0  0  0  0  0  0  0  0
   14.7870   36.0930   21.5360 F   0  0  0  0  0  0  0  0  0  0  0  0
   13.4510   36.6510   19.6320 C   0  0  0  0  0  0  0  0  0  0  0  0
   12.2020   36.9730   19.0480 C   0  0  0  0  0  0  0  0  0  0  0  0
   15.5645   41.4630   15.1354 H   0  0  0  0  0  0  0  0  0  0  0  0
   16.2593   40.2549   14.0020 H   0  0  0  0  0  0  0  0  0  0  0  0
   14.4915   40.5737   14.0020 H   0  0  0  0  0  0  0  0  0  0  0  0
   14.7523   38.5146   15.2041 H   0  0  0  0  0  0  0  0  0  0  0  0
   16.1638   39.1342   16.1218 H   0  0  0  0  0  0  0  0  0  0  0  0
   10.8511   38.7139   14.6372 H   0  0  0  0  0  0  0  0  0  0  0  0
   12.2556   39.6212   13.9808 H   0  0  0  0  0  0  0  0  0  0  0  0
   12.2672   37.8249   13.9808 H   0  0  0  0  0  0  0  0  0  0  0  0
   12.4552   36.6289   15.8106 H   0  0  0  0  0  0  0  0  0  0  0  0
   13.7285   37.3355   16.8981 H   0  0  0  0  0  0  0  0  0  0  0  0
    8.6282   37.0351   20.6809 H   0  0  0  0  0  0  0  0  0  0  0  0
    8.3520   38.5028   19.6100 H   0  0  0  0  0  0  0  0  0  0  0  0
    8.7880   34.9359   18.4824 H   0  0  0  0  0  0  0  0  0  0  0  0
    7.0415   33.7128   17.1838 H   0  0  0  0  0  0  0  0  0  0  0  0
    4.7966   34.7542   16.8057 H   0  0  0  0  0  0  0  0  0  0  0  0
    3.2566   36.5903   17.1014 H   0  0  0  0  0  0  0  0  0  0  0  0
    2.7188   38.8624   18.0124 H   0  0  0  0  0  0  0  0  0  0  0  0
    4.4424   40.1217   19.3252 H   0  0  0  0  0  0  0  0  0  0  0  0
    6.6986   39.1212   19.7250 H   0  0  0  0  0  0  0  0  0  0  0  0
   10.2996   36.8108   21.9366 H   0  0  0  0  0  0  0  0  0  0  0  0
   12.5404   36.2585   22.9212 H   0  0  0  0  0  0  0  0  0  0  0  0
   14.3453   36.5996   18.9935 H   0  0  0  0  0  0  0  0  0  0  0  0
  1  2  1  0
  2  3  1  0
  3  4  1  0
  4  5  2  0
  4  6  1  0
  6  7  1  0
  6  8  1  0
  8  9  1  0
  9 10  2  0
 10 11  1  0
 11 12  2  0
 11 13  1  0
 10 14  1  0
 14 15  1  0
 15 16  1  0
 16 17  2  0
 17 18  1  0
 18 19  2  0
 19 20  1  0
 20 21  2  0
 21 22  1  0
 22 23  2  0
 23 24  1  0
 24 25  2  0
 14 26  1  0
 26 27  2  0
 27 28  1  0
 28 29  2  0
 29 30  1  0
 29 31  1  0
 31 32  2  0
 32  9  1  0
 25 16  1  0
 32 26  1  0
 25 20  1  0
  1 33  1  0
  1 34  1  0
  1 35  1  0
  2 36  1  0
  2 37  1  0
  7 38  1  0
  7 39  1  0
  7 40  1  0
  8 41  1  0
  8 42  1  0
 15 43  1  0
 15 44  1  0
 17 45  1  0
 18 46  1  0
 19 47  1  0
 21 48  1  0
 22 49  1  0
 23 50  1  0
 24 51  1  0
 27 52  1  0
 28 53  1  0
 31 54  1  0
M  CHG  1  13  -1
M  END
>  <meeko>  (181) 
{"free_energy": -4.22, "intermolecular_energy": -6.6, "internal_energy": -1.86, "cluster_size": 11, "cluster_id": 147, "rank_in_cluster": 9}

$$$$

     RDKit          3D

 54 57  0  0  0  0  0  0  0  0999 V2000
   17.5150   37.3030   13.6110 C   0  0  0  0  0  0  0  0  0  0  0  0
   16.2200   38.0860   13.8410 C   0  0  0  0  0  0  0  0  0  0  0  0
   15.7190   38.5370   12.5930 O   0  0  0  0  0  0  0  0  0  0  0  0
   16.5550   39.0900   11.6880 C   0  0  0  0  0  0  0  0  0  0  0  0
   16.8350   38.5600   10.6120 O   0  0  0  0  0  0  0  0  0  0  0  0
   17.0310   40.3240   12.1500 N   0  0  0  0  0  0  0  0  0  0  0  0
   18.4180   40.5090   12.5920 C   0  0  0  0  0  0  0  0  0  0  0  0
   16.1490   41.4950   12.2410 C   0  0  0  0  0  0  0  0  0  0  0  0
   14.7950   41.2410   11.6210 C   0  0  0  0  0  0  0  0  0  0  0  0
   13.5620   41.1470   12.2420 C   0  0  0  0  0  0  0  0  0  0  0  0
   13.2080   41.3020   13.6870 C   0  0  0  0  0  0  0  0  0  0  0  0
   12.9520   40.2780   14.3560 O   0  0  0  0  0  0  0  0  0  0  0  0
   13.1490   42.4360   14.2110 O   0  0  0  0  0  1  0  0  0  0  0  0
   12.5870   40.8370   11.2700 N   0  0  0  0  0  0  0  0  0  0  0  0
   11.1450   40.6500   11.4550 C   0  0  0  0  0  0  0  0  0  0  0  0
   10.6720   39.1920   11.4040 C   0  0  0  0  0  0  0  0  0  0  0  0
   11.1660   38.2350   12.3260 C   0  0  0  0  0  0  0  0  0  0  0  0
   10.7350   36.8980   12.2830 C   0  0  0  0  0  0  0  0  0  0  0  0
    9.8030   36.4910   11.3150 C   0  0  0  0  0  0  0  0  0  0  0  0
    9.2980   37.4220   10.3870 C   0  0  0  0  0  0  0  0  0  0  0  0
    8.3630   36.9960    9.4220 C   0  0  0  0  0  0  0  0  0  0  0  0
    7.8460   37.9080    8.4840 C   0  0  0  0  0  0  0  0  0  0  0  0
    8.2630   39.2500    8.5120 C   0  0  0  0  0  0  0  0  0  0  0  0
    9.1980   39.6820    9.4730 C   0  0  0  0  0  0  0  0  0  0  0  0
    9.7290   38.7770   10.4240 C   0  0  0  0  0  0  0  0  0  0  0  0
   13.1960   40.7320   10.0270 C   0  0  0  0  0  0  0  0  0  0  0  0
   12.6800   40.4310    8.7500 C   0  0  0  0  0  0  0  0  0  0  0  0
   13.5380   40.3990    7.6370 C   0  0  0  0  0  0  0  0  0  0  0  0
   14.9070   40.6700    7.8050 C   0  0  0  0  0  0  0  0  0  0  0  0
   15.7380   40.6450    6.7360 F   0  0  0  0  0  0  0  0  0  0  0  0
   15.4150   40.9670    9.0840 C   0  0  0  0  0  0  0  0  0  0  0  0
   14.5770   41.0000   10.2250 C   0  0  0  0  0  0  0  0  0  0  0  0
   17.9586   37.0348   14.5812 H   0  0  0  0  0  0  0  0  0  0  0  0
   17.2938   36.3872   13.0432 H   0  0  0  0  0  0  0  0  0  0  0  0
   18.2232   37.9243   13.0432 H   0  0  0  0  0  0  0  0  0  0  0  0
   15.4762   37.4336   14.3218 H   0  0  0  0  0  0  0  0  0  0  0  0
   16.4213   38.9496   14.4920 H   0  0  0  0  0  0  0  0  0  0  0  0
   18.4549   40.5139   13.6914 H   0  0  0  0  0  0  0  0  0  0  0  0
   19.0381   39.6856   12.2080 H   0  0  0  0  0  0  0  0  0  0  0  0
   18.8006   41.4661   12.2080 H   0  0  0  0  0  0  0  0  0  0  0  0
   16.0101   41.7520   13.3015 H   0  0  0  0  0  0  0  0  0  0  0  0
   16.6240   42.3185   11.6876 H   0  0  0  0  0  0  0  0  0  0  0  0
   10.8696   41.0646   12.4359 H   0  0  0  0  0  0  0  0  0  0  0  0
   10.6565   41.1628   10.6133 H   0  0  0  0  0  0  0  0  0  0  0  0
   11.8980   38.5437   13.0868 H   0  0  0  0  0  0  0  0  0  0  0  0
   11.1280   36.1701   13.0080 H   0  0  0  0  0  0  0  0  0  0  0  0
    9.4670   35.4441   11.2815 H   0  0  0  0  0  0  0  0  0  0  0  0
    8.0362   35.9458    9.4023 H   0  0  0  0  0  0  0  0  0  0  0  0
    7.1178   37.5720    7.7311 H   0  0  0  0  0  0  0  0  0  0  0  0
    7.8579   39.9653    7.7811 H   0  0  0  0  0  0  0  0  0  0  0  0
    9.5192   40.7340    9.4848 H   0  0  0  0  0  0  0  0  0  0  0  0
   11.6074   40.2215    8.6248 H   0  0  0  0  0  0  0  0  0  0  0  0
   13.1399   40.1630    6.6391 H   0  0  0  0  0  0  0  0  0  0  0  0
   16.4883   41.1784    9.1997 H   0  0  0  0  0  0  0  0  0  0  0  0
  1  2  1  0
  2  3  1  0
  3  4  1  0
  4  5  2  0
  4  6  1  0
  6  7  1  0
  6  8  1  0
  8  9  1  0
  9 10  2  0
 10 11  1  0
 11 12  2  0
 11 13  1  0
 10 14  1  0
 14 15  1  0
 15 16  1  0
 16 17  2  0
 17 18  1  0
 18 19  2  0
 19 20  1  0
 20 21  2  0
 21 22  1  0
 22 23  2  0
 23 24  1  0
 24 25  2  0
 14 26  1  0
 26 27  2  0
 27 28  1  0
 28 29  2  0
 29 30  1  0
 29 31  1  0
 31 32  2  0
 32  9  1  0
 25 16  1  0
 32 26  1  0
 25 20  1  0
  1 33  1  0
  1 34  1  0
  1 35  1  0
  2 36  1  0
  2 37  1  0
  7 38  1  0
  7 39  1  0
  7 40  1  0
  8 41  1  0
  8 42  1  0
 15 43  1  0
 15 44  1  0
 17 45  1  0
 18 46  1  0
 19 47  1  0
 21 48  1  0
 22 49  1  0
 23 50  1  0
 24 51  1  0
 27 52  1  0
 28 53  1  0
 31 54  1  0
M  CHG  1  13  -1
M  END
>  <meeko>  (182) 
{"free_energy": -3.86, "intermolecular_energy": -6.24, "internal_energy": -2.13, "cluster_size": 49, "cluster_id": 55, "rank_in_cluster": 49}

$$$$

     RDKit          3D

 54 57  0  0  0  0  0  0  0  0999 V2000
   17.8780   39.0930   10.8750 C   0  0  0  0  0  0  0  0  0  0  0  0
   18.0690   38.8530   12.3750 C   0  0  0  0  0  0  0  0  0  0  0  0
   17.0100   38.0410   12.8570 O   0  0  0  0  0  0  0  0  0  0  0  0
   15.7660   38.1840   12.3540 C   0  0  0  0  0  0  0  0  0  0  0  0
   15.1870   37.3020   11.7160 O   0  0  0  0  0  0  0  0  0  0  0  0
   15.2500   39.4480   12.6670 N   0  0  0  0  0  0  0  0  0  0  0  0
   15.3770   40.0320   14.0070 C   0  0  0  0  0  0  0  0  0  0  0  0
   14.5270   40.2450   11.6680 C   0  0  0  0  0  0  0  0  0  0  0  0
   13.0800   39.8280   11.5410 C   0  0  0  0  0  0  0  0  0  0  0  0
   12.2170   40.0070   10.4750 C   0  0  0  0  0  0  0  0  0  0  0  0
   12.4690   40.6270    9.1370 C   0  0  0  0  0  0  0  0  0  0  0  0
   11.9280   41.7230    8.8720 O   0  0  0  0  0  0  0  0  0  0  0  0
   13.1910   40.0520    8.2940 O   0  0  0  0  0  1  0  0  0  0  0  0
   10.9450   39.5110   10.8330 N   0  0  0  0  0  0  0  0  0  0  0  0
    9.7220   39.4760   10.0260 C   0  0  0  0  0  0  0  0  0  0  0  0
    9.2720   38.0740    9.5960 C   0  0  0  0  0  0  0  0  0  0  0  0
    9.8070   36.9180   10.2180 C   0  0  0  0  0  0  0  0  0  0  0  0
    9.3980   35.6310    9.8280 C   0  0  0  0  0  0  0  0  0  0  0  0
    8.4480   35.4760    8.8060 C   0  0  0  0  0  0  0  0  0  0  0  0
    7.9030   36.6080    8.1720 C   0  0  0  0  0  0  0  0  0  0  0  0
    6.9490   36.4330    7.1480 C   0  0  0  0  0  0  0  0  0  0  0  0
    6.3920   37.5500    6.5000 C   0  0  0  0  0  0  0  0  0  0  0  0
    6.7870   38.8460    6.8770 C   0  0  0  0  0  0  0  0  0  0  0  0
    7.7390   39.0270    7.8980 C   0  0  0  0  0  0  0  0  0  0  0  0
    8.3100   37.9130    8.5610 C   0  0  0  0  0  0  0  0  0  0  0  0
   10.9940   39.0150   12.1290 C   0  0  0  0  0  0  0  0  0  0  0  0
   10.0070   38.4330   12.9510 C   0  0  0  0  0  0  0  0  0  0  0  0
   10.3390   38.0020   14.2460 C   0  0  0  0  0  0  0  0  0  0  0  0
   11.6560   38.1530   14.7140 C   0  0  0  0  0  0  0  0  0  0  0  0
   11.9830   37.7360   15.9610 F   0  0  0  0  0  0  0  0  0  0  0  0
   12.6350   38.7390   13.8890 C   0  0  0  0  0  0  0  0  0  0  0  0
   12.3290   39.1890   12.5820 C   0  0  0  0  0  0  0  0  0  0  0  0
   17.1995   39.9455   10.7235 H   0  0  0  0  0  0  0  0  0  0  0  0
   18.8514   39.3122   10.4119 H   0  0  0  0  0  0  0  0  0  0  0  0
   17.4459   38.1937   10.4119 H   0  0  0  0  0  0  0  0  0  0  0  0
   19.0294   38.3450   12.5468 H   0  0  0  0  0  0  0  0  0  0  0  0
   18.0668   39.8162   12.9062 H   0  0  0  0  0  0  0  0  0  0  0  0
   15.2075   39.2524   14.7643 H   0  0  0  0  0  0  0  0  0  0  0  0
   16.3870   40.4499   14.1307 H   0  0  0  0  0  0  0  0  0  0  0  0
   14.6317   40.8316   14.1307 H   0  0  0  0  0  0  0  0  0  0  0  0
   14.5655   41.3036   11.9645 H   0  0  0  0  0  0  0  0  0  0  0  0
   15.0110   40.0834   10.6935 H   0  0  0  0  0  0  0  0  0  0  0  0
    8.9110   39.9296   10.6147 H   0  0  0  0  0  0  0  0  0  0  0  0
    9.9475   40.0252    9.1000 H   0  0  0  0  0  0  0  0  0  0  0  0
   10.5536   37.0298   11.0181 H   0  0  0  0  0  0  0  0  0  0  0  0
    9.8223   34.7453   10.3235 H   0  0  0  0  0  0  0  0  0  0  0  0
    8.1293   34.4685    8.5004 H   0  0  0  0  0  0  0  0  0  0  0  0
    6.6394   35.4189    6.8551 H   0  0  0  0  0  0  0  0  0  0  0  0
    5.6495   37.4104    5.7005 H   0  0  0  0  0  0  0  0  0  0  0  0
    6.3508   39.7208    6.3726 H   0  0  0  0  0  0  0  0  0  0  0  0
    8.0429   40.0447    8.1842 H   0  0  0  0  0  0  0  0  0  0  0  0
    8.9785   38.3167   12.5786 H   0  0  0  0  0  0  0  0  0  0  0  0
    9.5720   37.5484   14.8910 H   0  0  0  0  0  0  0  0  0  0  0  0
   13.6614   38.8497   14.2688 H   0  0  0  0  0  0  0  0  0  0  0  0
  1  2  1  0
  2  3  1  0
  3  4  1  0
  4  5  2  0
  4  6  1  0
  6  7  1  0
  6  8  1  0
  8  9  1  0
  9 10  2  0
 10 11  1  0
 11 12  2  0
 11 13  1  0
 10 14  1  0
 14 15  1  0
 15 16  1  0
 16 17  2  0
 17 18  1  0
 18 19  2  0
 19 20  1  0
 20 21  2  0
 21 22  1  0
 22 23  2  0
 23 24  1  0
 24 25  2  0
 14 26  1  0
 26 27  2  0
 27 28  1  0
 28 29  2  0
 29 30  1  0
 29 31  1  0
 31 32  2  0
 32  9  1  0
 25 16  1  0
 32 26  1  0
 25 20  1  0
  1 33  1  0
  1 34  1  0
  1 35  1  0
  2 36  1  0
  2 37  1  0
  7 38  1  0
  7 39  1  0
  7 40  1  0
  8 41  1  0
  8 42  1  0
 15 43  1  0
 15 44  1  0
 17 45  1  0
 18 46  1  0
 19 47  1  0
 21 48  1  0
 22 49  1  0
 23 50  1  0
 24 51  1  0
 27 52  1  0
 28 53  1  0
 31 54  1  0
M  CHG  1  13  -1
M  END
>  <meeko>  (183) 
{"free_energy": -5.87, "intermolecular_energy": -8.25, "internal_energy": -1.49, "cluster_size": 292, "cluster_id": 10, "rank_in_cluster": 177}

$$$$

     RDKit          3D

 54 57  0  0  0  0  0  0  0  0999 V2000
   13.4980   41.5950   18.6670 C   0  0  0  0  0  0  0  0  0  0  0  0
   13.1380   42.4650   17.4600 C   0  0  0  0  0  0  0  0  0  0  0  0
   12.7870   41.6280   16.3700 O   0  0  0  0  0  0  0  0  0  0  0  0
   11.7070   41.9200   15.6130 C   0  0  0  0  0  0  0  0  0  0  0  0
   11.5990   42.9580   14.9580 O   0  0  0  0  0  0  0  0  0  0  0  0
   10.7640   40.8870   15.6840 N   0  0  0  0  0  0  0  0  0  0  0  0
   10.8430   39.8260   16.6940 C   0  0  0  0  0  0  0  0  0  0  0  0
    9.6560   40.8000   14.7230 C   0  0  0  0  0  0  0  0  0  0  0  0
    9.8740   39.7130   13.6960 C   0  0  0  0  0  0  0  0  0  0  0  0
   10.1730   39.8400   12.3510 C   0  0  0  0  0  0  0  0  0  0  0  0
   10.4000   41.0740   11.5360 C   0  0  0  0  0  0  0  0  0  0  0  0
    9.4190   41.6220   10.9900 O   0  0  0  0  0  0  0  0  0  0  0  0
   11.5530   41.5360   11.3880 O   0  0  0  0  0  1  0  0  0  0  0  0
   10.2230   38.5530   11.7730 N   0  0  0  0  0  0  0  0  0  0  0  0
   10.5130   38.1890   10.3840 C   0  0  0  0  0  0  0  0  0  0  0  0
    9.3040   38.2290    9.4400 C   0  0  0  0  0  0  0  0  0  0  0  0
    8.9030   39.4410    8.8240 C   0  0  0  0  0  0  0  0  0  0  0  0
    7.7960   39.4830    7.9600 C   0  0  0  0  0  0  0  0  0  0  0  0
    7.0670   38.3130    7.6960 C   0  0  0  0  0  0  0  0  0  0  0  0
    7.4430   37.0970    8.2970 C   0  0  0  0  0  0  0  0  0  0  0  0
    6.6990   35.9310    8.0210 C   0  0  0  0  0  0  0  0  0  0  0  0
    7.0560   34.7050    8.6100 C   0  0  0  0  0  0  0  0  0  0  0  0
    8.1610   34.6430    9.4770 C   0  0  0  0  0  0  0  0  0  0  0  0
    8.9080   35.8030    9.7580 C   0  0  0  0  0  0  0  0  0  0  0  0
    8.5620   37.0460    9.1720 C   0  0  0  0  0  0  0  0  0  0  0  0
    9.9550   37.6020   12.7500 C   0  0  0  0  0  0  0  0  0  0  0  0
    9.8690   36.1960   12.6940 C   0  0  0  0  0  0  0  0  0  0  0  0
    9.5860   35.4640   13.8600 C   0  0  0  0  0  0  0  0  0  0  0  0
    9.3910   36.1410   15.0770 C   0  0  0  0  0  0  0  0  0  0  0  0
    9.1220   35.4410   16.2050 F   0  0  0  0  0  0  0  0  0  0  0  0
    9.4740   37.5460   15.1240 C   0  0  0  0  0  0  0  0  0  0  0  0
    9.7510   38.3100   13.9650 C   0  0  0  0  0  0  0  0  0  0  0  0
   13.2716   42.1422   19.5940 H   0  0  0  0  0  0  0  0  0  0  0  0
   12.9107   40.6654   18.6372 H   0  0  0  0  0  0  0  0  0  0  0  0
   14.5705   41.3522   18.6372 H   0  0  0  0  0  0  0  0  0  0  0  0
   12.2869   43.1136   17.7148 H   0  0  0  0  0  0  0  0  0  0  0  0
   14.0006   43.0892   17.1839 H   0  0  0  0  0  0  0  0  0  0  0  0
   10.8097   40.2729   17.6986 H   0  0  0  0  0  0  0  0  0  0  0  0
    9.9936   39.1381   16.5704 H   0  0  0  0  0  0  0  0  0  0  0  0
   11.7849   39.2715   16.5704 H   0  0  0  0  0  0  0  0  0  0  0  0
    8.7269   40.5872   15.2721 H   0  0  0  0  0  0  0  0  0  0  0  0
    9.5955   41.7604   14.1901 H   0  0  0  0  0  0  0  0  0  0  0  0
   11.2706   38.8873    9.9988 H   0  0  0  0  0  0  0  0  0  0  0  0
   10.8546   37.1436   10.4038 H   0  0  0  0  0  0  0  0  0  0  0  0
    9.4675   40.3633    9.0257 H   0  0  0  0  0  0  0  0  0  0  0  0
    7.5006   40.4328    7.4904 H   0  0  0  0  0  0  0  0  0  0  0  0
    6.2009   38.3464    7.0187 H   0  0  0  0  0  0  0  0  0  0  0  0
    5.8353   35.9809    7.3417 H   0  0  0  0  0  0  0  0  0  0  0  0
    6.4729   33.7978    8.3932 H   0  0  0  0  0  0  0  0  0  0  0  0
    8.4430   33.6847    9.9375 H   0  0  0  0  0  0  0  0  0  0  0  0
    9.7693   35.7437   10.4396 H   0  0  0  0  0  0  0  0  0  0  0  0
   10.0232   35.6725   11.7389 H   0  0  0  0  0  0  0  0  0  0  0  0
    9.5174   34.3668   13.8208 H   0  0  0  0  0  0  0  0  0  0  0  0
    9.3200   38.0616   16.0834 H   0  0  0  0  0  0  0  0  0  0  0  0
  1  2  1  0
  2  3  1  0
  3  4  1  0
  4  5  2  0
  4  6  1  0
  6  7  1  0
  6  8  1  0
  8  9  1  0
  9 10  2  0
 10 11  1  0
 11 12  2  0
 11 13  1  0
 10 14  1  0
 14 15  1  0
 15 16  1  0
 16 17  2  0
 17 18  1  0
 18 19  2  0
 19 20  1  0
 20 21  2  0
 21 22  1  0
 22 23  2  0
 23 24  1  0
 24 25  2  0
 14 26  1  0
 26 27  2  0
 27 28  1  0
 28 29  2  0
 29 30  1  0
 29 31  1  0
 31 32  2  0
 32  9  1  0
 25 16  1  0
 32 26  1  0
 25 20  1  0
  1 33  1  0
  1 34  1  0
  1 35  1  0
  2 36  1  0
  2 37  1  0
  7 38  1  0
  7 39  1  0
  7 40  1  0
  8 41  1  0
  8 42  1  0
 15 43  1  0
 15 44  1  0
 17 45  1  0
 18 46  1  0
 19 47  1  0
 21 48  1  0
 22 49  1  0
 23 50  1  0
 24 51  1  0
 27 52  1  0
 28 53  1  0
 31 54  1  0
M  CHG  1  13  -1
M  END
>  <meeko>  (184) 
{"free_energy": -5.34, "intermolecular_energy": -7.72, "internal_energy": -1.68, "cluster_size": 76, "cluster_id": 21, "rank_in_cluster": 62}

$$$$

     RDKit          3D

 54 57  0  0  0  0  0  0  0  0999 V2000
    7.2660   35.4480   18.7310 C   0  0  0  0  0  0  0  0  0  0  0  0
    8.4070   35.4500   17.7110 C   0  0  0  0  0  0  0  0  0  0  0  0
    9.1800   36.6280   17.8770 O   0  0  0  0  0  0  0  0  0  0  0  0
   10.5260   36.5710   17.7950 C   0  0  0  0  0  0  0  0  0  0  0  0
   11.2670   36.6040   18.7790 O   0  0  0  0  0  0  0  0  0  0  0  0
   10.9330   36.4640   16.4590 N   0  0  0  0  0  0  0  0  0  0  0  0
   11.1660   35.1670   15.8150 C   0  0  0  0  0  0  0  0  0  0  0  0
   11.1770   37.6590   15.6400 C   0  0  0  0  0  0  0  0  0  0  0  0
   10.7430   37.4670   14.2060 C   0  0  0  0  0  0  0  0  0  0  0  0
    9.6100   36.8380   13.7190 C   0  0  0  0  0  0  0  0  0  0  0  0
    8.4790   36.2020   14.4640 C   0  0  0  0  0  0  0  0  0  0  0  0
    8.2750   34.9780   14.3130 O   0  0  0  0  0  0  0  0  0  0  0  0
    7.7410   36.8850   15.2070 O   0  0  0  0  0  1  0  0  0  0  0  0
    9.6570   36.8450   12.3090 N   0  0  0  0  0  0  0  0  0  0  0  0
    8.6760   36.3050   11.3630 C   0  0  0  0  0  0  0  0  0  0  0  0
    8.3070   37.2470   10.2090 C   0  0  0  0  0  0  0  0  0  0  0  0
    8.3950   38.6530   10.3630 C   0  0  0  0  0  0  0  0  0  0  0  0
    8.0570   39.5190    9.3090 C   0  0  0  0  0  0  0  0  0  0  0  0
    7.6230   38.9950    8.0810 C   0  0  0  0  0  0  0  0  0  0  0  0
    7.5260   37.6020    7.9040 C   0  0  0  0  0  0  0  0  0  0  0  0
    7.0870   37.0930    6.6640 C   0  0  0  0  0  0  0  0  0  0  0  0
    6.9820   35.7050    6.4640 C   0  0  0  0  0  0  0  0  0  0  0  0
    7.3160   34.8220    7.5060 C   0  0  0  0  0  0  0  0  0  0  0  0
    7.7530   35.3230    8.7470 C   0  0  0  0  0  0  0  0  0  0  0  0
    7.8660   36.7190    8.9650 C   0  0  0  0  0  0  0  0  0  0  0  0
   10.8210   37.4780   11.8920 C   0  0  0  0  0  0  0  0  0  0  0  0
   11.3440   37.7320   10.6080 C   0  0  0  0  0  0  0  0  0  0  0  0
   12.5640   38.4150   10.4710 C   0  0  0  0  0  0  0  0  0  0  0  0
   13.2550   38.8430   11.6170 C   0  0  0  0  0  0  0  0  0  0  0  0
   14.4300   39.5050   11.4920 F   0  0  0  0  0  0  0  0  0  0  0  0
   12.7280   38.5820   12.8970 C   0  0  0  0  0  0  0  0  0  0  0  0
   11.5050   37.8900   13.0670 C   0  0  0  0  0  0  0  0  0  0  0  0
    7.6838   35.4487   19.7486 H   0  0  0  0  0  0  0  0  0  0  0  0
    6.6455   36.3451   18.5888 H   0  0  0  0  0  0  0  0  0  0  0  0
    6.6486   34.5488   18.5888 H   0  0  0  0  0  0  0  0  0  0  0  0
    9.0436   34.5670   17.8695 H   0  0  0  0  0  0  0  0  0  0  0  0
    7.9920   35.4211   16.6927 H   0  0  0  0  0  0  0  0  0  0  0  0
   11.3048   34.3946   16.5858 H   0  0  0  0  0  0  0  0  0  0  0  0
   10.3000   34.9080   15.1881 H   0  0  0  0  0  0  0  0  0  0  0  0
   12.0680   35.2257   15.1881 H   0  0  0  0  0  0  0  0  0  0  0  0
   10.6173   38.5030   16.0694 H   0  0  0  0  0  0  0  0  0  0  0  0
   12.2596   37.8539   15.6417 H   0  0  0  0  0  0  0  0  0  0  0  0
    9.0893   35.3814   10.9317 H   0  0  0  0  0  0  0  0  0  0  0  0
    7.7515   36.1412   11.9361 H   0  0  0  0  0  0  0  0  0  0  0  0
    8.7329   39.0728   11.3219 H   0  0  0  0  0  0  0  0  0  0  0  0
    8.1325   40.6078    9.4463 H   0  0  0  0  0  0  0  0  0  0  0  0
    7.3586   39.6735    7.2566 H   0  0  0  0  0  0  0  0  0  0  0  0
    6.8256   37.7848    5.8497 H   0  0  0  0  0  0  0  0  0  0  0  0
    6.6397   35.3114    5.4956 H   0  0  0  0  0  0  0  0  0  0  0  0
    7.2356   33.7359    7.3510 H   0  0  0  0  0  0  0  0  0  0  0  0
    8.0095   34.6235    9.5562 H   0  0  0  0  0  0  0  0  0  0  0  0
   10.7976   37.3959    9.7144 H   0  0  0  0  0  0  0  0  0  0  0  0
   12.9765   38.6138    9.4708 H   0  0  0  0  0  0  0  0  0  0  0  0
   13.2797   38.9239   13.7851 H   0  0  0  0  0  0  0  0  0  0  0  0
  1  2  1  0
  2  3  1  0
  3  4  1  0
  4  5  2  0
  4  6  1  0
  6  7  1  0
  6  8  1  0
  8  9  1  0
  9 10  2  0
 10 11  1  0
 11 12  2  0
 11 13  1  0
 10 14  1  0
 14 15  1  0
 15 16  1  0
 16 17  2  0
 17 18  1  0
 18 19  2  0
 19 20  1  0
 20 21  2  0
 21 22  1  0
 22 23  2  0
 23 24  1  0
 24 25  2  0
 14 26  1  0
 26 27  2  0
 27 28  1  0
 28 29  2  0
 29 30  1  0
 29 31  1  0
 31 32  2  0
 32  9  1  0
 25 16  1  0
 32 26  1  0
 25 20  1  0
  1 33  1  0
  1 34  1  0
  1 35  1  0
  2 36  1  0
  2 37  1  0
  7 38  1  0
  7 39  1  0
  7 40  1  0
  8 41  1  0
  8 42  1  0
 15 43  1  0
 15 44  1  0
 17 45  1  0
 18 46  1  0
 19 47  1  0
 21 48  1  0
 22 49  1  0
 23 50  1  0
 24 51  1  0
 27 52  1  0
 28 53  1  0
 31 54  1  0
M  CHG  1  13  -1
M  END
>  <meeko>  (185) 
{"free_energy": -8.31, "intermolecular_energy": -10.7, "internal_energy": -1.5, "cluster_size": 263, "cluster_id": 1, "rank_in_cluster": 5}

$$$$

     RDKit          3D

 54 57  0  0  0  0  0  0  0  0999 V2000
   13.5100   37.9540   16.4430 C   0  0  0  0  0  0  0  0  0  0  0  0
   14.6460   38.7570   15.8040 C   0  0  0  0  0  0  0  0  0  0  0  0
   14.6300   38.5530   14.4010 O   0  0  0  0  0  0  0  0  0  0  0  0
   14.6730   39.6110   13.5630 C   0  0  0  0  0  0  0  0  0  0  0  0
   15.6760   40.3100   13.4050 O   0  0  0  0  0  0  0  0  0  0  0  0
   13.4410   39.7790   12.9190 N   0  0  0  0  0  0  0  0  0  0  0  0
   12.6090   38.6390   12.5160 C   0  0  0  0  0  0  0  0  0  0  0  0
   12.9300   41.1160   12.5880 C   0  0  0  0  0  0  0  0  0  0  0  0
   11.6030   41.0590   11.8680 C   0  0  0  0  0  0  0  0  0  0  0  0
   11.3090   40.5020   10.6360 C   0  0  0  0  0  0  0  0  0  0  0  0
   12.2000   39.7700    9.6830 C   0  0  0  0  0  0  0  0  0  0  0  0
   13.4350   39.9440    9.7620 O   0  0  0  0  0  0  0  0  0  0  0  0
   11.7160   39.0140    8.8120 O   0  0  0  0  0  1  0  0  0  0  0  0
    9.9500   40.7440   10.3410 N   0  0  0  0  0  0  0  0  0  0  0  0
    9.1890   40.3360    9.1560 C   0  0  0  0  0  0  0  0  0  0  0  0
    8.7470   38.8660    9.1490 C   0  0  0  0  0  0  0  0  0  0  0  0
    9.1570   37.9790   10.1760 C   0  0  0  0  0  0  0  0  0  0  0  0
    8.7540   36.6330   10.1730 C   0  0  0  0  0  0  0  0  0  0  0  0
    7.9350   36.1470    9.1420 C   0  0  0  0  0  0  0  0  0  0  0  0
    7.5150   37.0080    8.1100 C   0  0  0  0  0  0  0  0  0  0  0  0
    6.6920   36.5020    7.0820 C   0  0  0  0  0  0  0  0  0  0  0  0
    6.2620   37.3440    6.0400 C   0  0  0  0  0  0  0  0  0  0  0  0
    6.6530   38.6940    6.0260 C   0  0  0  0  0  0  0  0  0  0  0  0
    7.4750   39.2050    7.0490 C   0  0  0  0  0  0  0  0  0  0  0  0
    7.9180   38.3710    8.1050 C   0  0  0  0  0  0  0  0  0  0  0  0
    9.3750   41.4570   11.3840 C   0  0  0  0  0  0  0  0  0  0  0  0
    8.0690   41.9540   11.5760 C   0  0  0  0  0  0  0  0  0  0  0  0
    7.7490   42.6480   12.7540 C   0  0  0  0  0  0  0  0  0  0  0  0
    8.7340   42.8410   13.7380 C   0  0  0  0  0  0  0  0  0  0  0  0
    8.4310   43.5060   14.8780 F   0  0  0  0  0  0  0  0  0  0  0  0
   10.0370   42.3450   13.5380 C   0  0  0  0  0  0  0  0  0  0  0  0
   10.3910   41.6480   12.3580 C   0  0  0  0  0  0  0  0  0  0  0  0
   13.5914   38.0115   17.5385 H   0  0  0  0  0  0  0  0  0  0  0  0
   12.5427   38.3701   16.1248 H   0  0  0  0  0  0  0  0  0  0  0  0
   13.5796   36.9033   16.1248 H   0  0  0  0  0  0  0  0  0  0  0  0
   14.5082   39.8264   16.0218 H   0  0  0  0  0  0  0  0  0  0  0  0
   15.6104   38.4236   16.2147 H   0  0  0  0  0  0  0  0  0  0  0  0
   12.2333   38.1242   13.4126 H   0  0  0  0  0  0  0  0  0  0  0  0
   11.7596   38.9987   11.9167 H   0  0  0  0  0  0  0  0  0  0  0  0
   13.2106   37.9397   11.9167 H   0  0  0  0  0  0  0  0  0  0  0  0
   12.8031   41.6871   13.5195 H   0  0  0  0  0  0  0  0  0  0  0  0
   13.6568   41.5983   11.9178 H   0  0  0  0  0  0  0  0  0  0  0  0
    8.2882   40.9644    9.0948 H   0  0  0  0  0  0  0  0  0  0  0  0
    9.8643   40.4602    8.2966 H   0  0  0  0  0  0  0  0  0  0  0  0
    9.8003   38.3501   10.9874 H   0  0  0  0  0  0  0  0  0  0  0  0
    9.0806   35.9597   10.9792 H   0  0  0  0  0  0  0  0  0  0  0  0
    7.6210   35.0928    9.1402 H   0  0  0  0  0  0  0  0  0  0  0  0
    6.3854   35.4457    7.0951 H   0  0  0  0  0  0  0  0  0  0  0  0
    5.6216   36.9469    5.2386 H   0  0  0  0  0  0  0  0  0  0  0  0
    6.3157   39.3538    5.2130 H   0  0  0  0  0  0  0  0  0  0  0  0
    7.7762   40.2627    7.0279 H   0  0  0  0  0  0  0  0  0  0  0  0
    7.3017   41.7980   10.8034 H   0  0  0  0  0  0  0  0  0  0  0  0
    6.7321   43.0389   12.9061 H   0  0  0  0  0  0  0  0  0  0  0  0
   10.7973   42.5030   14.3171 H   0  0  0  0  0  0  0  0  0  0  0  0
  1  2  1  0
  2  3  1  0
  3  4  1  0
  4  5  2  0
  4  6  1  0
  6  7  1  0
  6  8  1  0
  8  9  1  0
  9 10  2  0
 10 11  1  0
 11 12  2  0
 11 13  1  0
 10 14  1  0
 14 15  1  0
 15 16  1  0
 16 17  2  0
 17 18  1  0
 18 19  2  0
 19 20  1  0
 20 21  2  0
 21 22  1  0
 22 23  2  0
 23 24  1  0
 24 25  2  0
 14 26  1  0
 26 27  2  0
 27 28  1  0
 28 29  2  0
 29 30  1  0
 29 31  1  0
 31 32  2  0
 32  9  1  0
 25 16  1  0
 32 26  1  0
 25 20  1  0
  1 33  1  0
  1 34  1  0
  1 35  1  0
  2 36  1  0
  2 37  1  0
  7 38  1  0
  7 39  1  0
  7 40  1  0
  8 41  1  0
  8 42  1  0
 15 43  1  0
 15 44  1  0
 17 45  1  0
 18 46  1  0
 19 47  1  0
 21 48  1  0
 22 49  1  0
 23 50  1  0
 24 51  1  0
 27 52  1  0
 28 53  1  0
 31 54  1  0
M  CHG  1  13  -1
M  END
>  <meeko>  (186) 
{"free_energy": -6.64, "intermolecular_energy": -9.03, "internal_energy": -1.4, "cluster_size": 417, "cluster_id": 2, "rank_in_cluster": 198}

$$$$

     RDKit          3D

 54 57  0  0  0  0  0  0  0  0999 V2000
   13.4070   41.7420    7.1740 C   0  0  0  0  0  0  0  0  0  0  0  0
   13.4700   40.6010    8.1930 C   0  0  0  0  0  0  0  0  0  0  0  0
   14.3920   40.9400    9.2160 O   0  0  0  0  0  0  0  0  0  0  0  0
   13.9820   41.0050   10.5010 C   0  0  0  0  0  0  0  0  0  0  0  0
   13.2490   41.8950   10.9350 O   0  0  0  0  0  0  0  0  0  0  0  0
   14.4990   39.9300   11.2370 N   0  0  0  0  0  0  0  0  0  0  0  0
   15.9110   39.5390   11.1590 C   0  0  0  0  0  0  0  0  0  0  0  0
   13.6390   39.1180   12.1080 C   0  0  0  0  0  0  0  0  0  0  0  0
   12.1830   39.5050   11.9940 C   0  0  0  0  0  0  0  0  0  0  0  0
   11.2500   39.1020   11.0550 C   0  0  0  0  0  0  0  0  0  0  0  0
   11.3990   38.1500    9.9100 C   0  0  0  0  0  0  0  0  0  0  0  0
   11.3360   38.5970    8.7450 O   0  0  0  0  0  0  0  0  0  0  0  0
   11.5630   36.9280   10.1160 O   0  0  0  0  0  1  0  0  0  0  0  0
   10.0330   39.7700   11.3080 N   0  0  0  0  0  0  0  0  0  0  0  0
    8.7640   39.6560   10.5840 C   0  0  0  0  0  0  0  0  0  0  0  0
    8.3910   38.2300   10.1570 C   0  0  0  0  0  0  0  0  0  0  0  0
    8.5950   37.1340   11.0320 C   0  0  0  0  0  0  0  0  0  0  0  0
    8.2550   35.8260   10.6460 C   0  0  0  0  0  0  0  0  0  0  0  0
    7.7060   35.5890    9.3750 C   0  0  0  0  0  0  0  0  0  0  0  0
    7.4960   36.6610    8.4870 C   0  0  0  0  0  0  0  0  0  0  0  0
    6.9440   36.4050    7.2150 C   0  0  0  0  0  0  0  0  0  0  0  0
    6.7250   37.4600    6.3110 C   0  0  0  0  0  0  0  0  0  0  0  0
    7.0580   38.7760    6.6800 C   0  0  0  0  0  0  0  0  0  0  0  0
    7.6100   39.0380    7.9480 C   0  0  0  0  0  0  0  0  0  0  0  0
    7.8360   37.9870    8.8710 C   0  0  0  0  0  0  0  0  0  0  0  0
   10.1880   40.6020   12.4090 C   0  0  0  0  0  0  0  0  0  0  0  0
    9.2950   41.4820   13.0550 C   0  0  0  0  0  0  0  0  0  0  0  0
    9.7200   42.2110   14.1780 C   0  0  0  0  0  0  0  0  0  0  0  0
   11.0330   42.0560   14.6540 C   0  0  0  0  0  0  0  0  0  0  0  0
   11.4480   42.7530   15.7380 F   0  0  0  0  0  0  0  0  0  0  0  0
   11.9200   41.1770   14.0020 C   0  0  0  0  0  0  0  0  0  0  0  0
   11.5230   40.4350   12.8630 C   0  0  0  0  0  0  0  0  0  0  0  0
   13.3539   42.7044    7.7040 H   0  0  0  0  0  0  0  0  0  0  0  0
   14.3077   41.7202    6.5429 H   0  0  0  0  0  0  0  0  0  0  0  0
   12.5142   41.6211    6.5429 H   0  0  0  0  0  0  0  0  0  0  0  0
   12.4738   40.4448    8.6325 H   0  0  0  0  0  0  0  0  0  0  0  0
   13.7956   39.6767    7.6933 H   0  0  0  0  0  0  0  0  0  0  0  0
   16.3170   39.4266   12.1751 H   0  0  0  0  0  0  0  0  0  0  0  0
   15.9976   38.5831   10.6217 H   0  0  0  0  0  0  0  0  0  0  0  0
   16.4770   40.3142   10.6217 H   0  0  0  0  0  0  0  0  0  0  0  0
   13.7475   38.0602   11.8263 H   0  0  0  0  0  0  0  0  0  0  0  0
   13.9535   39.2897   13.1480 H   0  0  0  0  0  0  0  0  0  0  0  0
    7.9637   40.0385   11.2345 H   0  0  0  0  0  0  0  0  0  0  0  0
    8.8843   40.2349    9.6564 H   0  0  0  0  0  0  0  0  0  0  0  0
    9.0261   37.3097   12.0286 H   0  0  0  0  0  0  0  0  0  0  0  0
    8.4188   34.9879   11.3393 H   0  0  0  0  0  0  0  0  0  0  0  0
    7.4400   34.5652    9.0733 H   0  0  0  0  0  0  0  0  0  0  0  0
    6.6835   35.3755    6.9284 H   0  0  0  0  0  0  0  0  0  0  0  0
    6.2949   37.2568    5.3192 H   0  0  0  0  0  0  0  0  0  0  0  0
    6.8864   39.6030    5.9753 H   0  0  0  0  0  0  0  0  0  0  0  0
    7.8689   40.0704    8.2255 H   0  0  0  0  0  0  0  0  0  0  0  0
    8.2673   41.5973   12.6800 H   0  0  0  0  0  0  0  0  0  0  0  0
    9.0276   42.9006   14.6829 H   0  0  0  0  0  0  0  0  0  0  0  0
   12.9445   41.0644   14.3864 H   0  0  0  0  0  0  0  0  0  0  0  0
  1  2  1  0
  2  3  1  0
  3  4  1  0
  4  5  2  0
  4  6  1  0
  6  7  1  0
  6  8  1  0
  8  9  1  0
  9 10  2  0
 10 11  1  0
 11 12  2  0
 11 13  1  0
 10 14  1  0
 14 15  1  0
 15 16  1  0
 16 17  2  0
 17 18  1  0
 18 19  2  0
 19 20  1  0
 20 21  2  0
 21 22  1  0
 22 23  2  0
 23 24  1  0
 24 25  2  0
 14 26  1  0
 26 27  2  0
 27 28  1  0
 28 29  2  0
 29 30  1  0
 29 31  1  0
 31 32  2  0
 32  9  1  0
 25 16  1  0
 32 26  1  0
 25 20  1  0
  1 33  1  0
  1 34  1  0
  1 35  1  0
  2 36  1  0
  2 37  1  0
  7 38  1  0
  7 39  1  0
  7 40  1  0
  8 41  1  0
  8 42  1  0
 15 43  1  0
 15 44  1  0
 17 45  1  0
 18 46  1  0
 19 47  1  0
 21 48  1  0
 22 49  1  0
 23 50  1  0
 24 51  1  0
 27 52  1  0
 28 53  1  0
 31 54  1  0
M  CHG  1  13  -1
M  END
>  <meeko>  (187) 
{"free_energy": -6.53, "intermolecular_energy": -8.91, "internal_energy": -2.06, "cluster_size": 417, "cluster_id": 2, "rank_in_cluster": 211}

$$$$

     RDKit          3D

 54 57  0  0  0  0  0  0  0  0999 V2000
   10.9750   44.8820   15.3620 C   0  0  0  0  0  0  0  0  0  0  0  0
   11.2300   44.6380   13.8730 C   0  0  0  0  0  0  0  0  0  0  0  0
   12.4630   43.9550   13.7160 O   0  0  0  0  0  0  0  0  0  0  0  0
   12.5660   42.9400   12.8310 C   0  0  0  0  0  0  0  0  0  0  0  0
   11.9700   42.9170   11.7530 O   0  0  0  0  0  0  0  0  0  0  0  0
   13.4340   41.9520   13.3150 N   0  0  0  0  0  0  0  0  0  0  0  0
   14.8930   42.0890   13.2350 C   0  0  0  0  0  0  0  0  0  0  0  0
   12.9210   40.7090   13.9050 C   0  0  0  0  0  0  0  0  0  0  0  0
   12.6690   39.6430   12.8640 C   0  0  0  0  0  0  0  0  0  0  0  0
   11.4920   38.9770   12.5730 C   0  0  0  0  0  0  0  0  0  0  0  0
   10.1310   39.1390   13.1730 C   0  0  0  0  0  0  0  0  0  0  0  0
    9.5130   38.1180   13.5440 O   0  0  0  0  0  0  0  0  0  0  0  0
    9.6140   40.2720   13.2820 O   0  0  0  0  0  1  0  0  0  0  0  0
   11.7480   38.0200   11.5680 N   0  0  0  0  0  0  0  0  0  0  0  0
   10.8090   37.0900   10.9350 C   0  0  0  0  0  0  0  0  0  0  0  0
    9.7540   37.7510   10.0370 C   0  0  0  0  0  0  0  0  0  0  0  0
    9.6670   39.1620    9.9360 C   0  0  0  0  0  0  0  0  0  0  0  0
    8.7030   39.7710    9.1150 C   0  0  0  0  0  0  0  0  0  0  0  0
    7.8060   38.9800    8.3800 C   0  0  0  0  0  0  0  0  0  0  0  0
    7.8710   37.5760    8.4640 C   0  0  0  0  0  0  0  0  0  0  0  0
    6.9610   36.7970    7.7200 C   0  0  0  0  0  0  0  0  0  0  0  0
    7.0070   35.3930    7.7890 C   0  0  0  0  0  0  0  0  0  0  0  0
    7.9650   34.7650    8.6040 C   0  0  0  0  0  0  0  0  0  0  0  0
    8.8760   35.5370    9.3510 C   0  0  0  0  0  0  0  0  0  0  0  0
    8.8440   36.9520    9.2930 C   0  0  0  0  0  0  0  0  0  0  0  0
   13.0910   38.0740   11.2160 C   0  0  0  0  0  0  0  0  0  0  0  0
   13.8490   37.3320   10.2870 C   0  0  0  0  0  0  0  0  0  0  0  0
   15.2170   37.6060   10.1220 C   0  0  0  0  0  0  0  0  0  0  0  0
   15.8220   38.6210   10.8840 C   0  0  0  0  0  0  0  0  0  0  0  0
   17.1390   38.8920   10.7270 F   0  0  0  0  0  0  0  0  0  0  0  0
   15.0580   39.3550   11.8120 C   0  0  0  0  0  0  0  0  0  0  0  0
   13.6790   39.0980   12.0060 C   0  0  0  0  0  0  0  0  0  0  0  0
   11.6430   44.2428   15.9580 H   0  0  0  0  0  0  0  0  0  0  0  0
   11.1703   45.9382   15.5992 H   0  0  0  0  0  0  0  0  0  0  0  0
    9.9284   44.6404   15.5992 H   0  0  0  0  0  0  0  0  0  0  0  0
   10.4157   44.0275   13.4556 H   0  0  0  0  0  0  0  0  0  0  0  0
   11.2712   45.6009   13.3428 H   0  0  0  0  0  0  0  0  0  0  0  0
   15.3138   42.1285   14.2506 H   0  0  0  0  0  0  0  0  0  0  0  0
   15.3133   41.2264   12.6972 H   0  0  0  0  0  0  0  0  0  0  0  0
   15.1454   43.0148   12.6972 H   0  0  0  0  0  0  0  0  0  0  0  0
   13.6579   40.3301   14.6285 H   0  0  0  0  0  0  0  0  0  0  0  0
   11.9617   40.9379   14.3922 H   0  0  0  0  0  0  0  0  0  0  0  0
   11.3879   36.3848   10.3205 H   0  0  0  0  0  0  0  0  0  0  0  0
   10.2577   36.6026   11.7527 H   0  0  0  0  0  0  0  0  0  0  0  0
   10.3649   39.7900   10.5092 H   0  0  0  0  0  0  0  0  0  0  0  0
    8.6512   40.8677    9.0482 H   0  0  0  0  0  0  0  0  0  0  0  0
    7.0514   39.4576    7.7377 H   0  0  0  0  0  0  0  0  0  0  0  0
    6.2118   37.2896    7.0828 H   0  0  0  0  0  0  0  0  0  0  0  0
    6.2958   34.7883    7.2072 H   0  0  0  0  0  0  0  0  0  0  0  0
    8.0033   33.6670    8.6585 H   0  0  0  0  0  0  0  0  0  0  0  0
    9.6207   35.0355    9.9866 H   0  0  0  0  0  0  0  0  0  0  0  0
   13.3701   36.5400    9.6925 H   0  0  0  0  0  0  0  0  0  0  0  0
   15.8125   37.0287    9.3994 H   0  0  0  0  0  0  0  0  0  0  0  0
   15.5443   40.1471   12.4003 H   0  0  0  0  0  0  0  0  0  0  0  0
  1  2  1  0
  2  3  1  0
  3  4  1  0
  4  5  2  0
  4  6  1  0
  6  7  1  0
  6  8  1  0
  8  9  1  0
  9 10  2  0
 10 11  1  0
 11 12  2  0
 11 13  1  0
 10 14  1  0
 14 15  1  0
 15 16  1  0
 16 17  2  0
 17 18  1  0
 18 19  2  0
 19 20  1  0
 20 21  2  0
 21 22  1  0
 22 23  2  0
 23 24  1  0
 24 25  2  0
 14 26  1  0
 26 27  2  0
 27 28  1  0
 28 29  2  0
 29 30  1  0
 29 31  1  0
 31 32  2  0
 32  9  1  0
 25 16  1  0
 32 26  1  0
 25 20  1  0
  1 33  1  0
  1 34  1  0
  1 35  1  0
  2 36  1  0
  2 37  1  0
  7 38  1  0
  7 39  1  0
  7 40  1  0
  8 41  1  0
  8 42  1  0
 15 43  1  0
 15 44  1  0
 17 45  1  0
 18 46  1  0
 19 47  1  0
 21 48  1  0
 22 49  1  0
 23 50  1  0
 24 51  1  0
 27 52  1  0
 28 53  1  0
 31 54  1  0
M  CHG  1  13  -1
M  END
>  <meeko>  (188) 
{"free_energy": -5.9, "intermolecular_energy": -8.29, "internal_energy": -1.68, "cluster_size": 50, "cluster_id": 39, "rank_in_cluster": 16}

$$$$

     RDKit          3D

 54 57  0  0  0  0  0  0  0  0999 V2000
   13.3110   38.7350   10.1520 C   0  0  0  0  0  0  0  0  0  0  0  0
   12.5180   39.1940    8.9260 C   0  0  0  0  0  0  0  0  0  0  0  0
   11.2200   38.6230    8.9680 O   0  0  0  0  0  0  0  0  0  0  0  0
   10.3490   38.9940    9.9300 C   0  0  0  0  0  0  0  0  0  0  0  0
   10.0400   40.1670   10.1490 O   0  0  0  0  0  0  0  0  0  0  0  0
    9.8610   37.8720   10.6120 N   0  0  0  0  0  0  0  0  0  0  0  0
    8.4960   37.3720   10.4170 C   0  0  0  0  0  0  0  0  0  0  0  0
   10.6930   37.1510   11.5850 C   0  0  0  0  0  0  0  0  0  0  0  0
   10.3450   37.5090   13.0110 C   0  0  0  0  0  0  0  0  0  0  0  0
    9.7960   36.7080   13.9960 C   0  0  0  0  0  0  0  0  0  0  0  0
    9.4220   35.2600   13.9500 C   0  0  0  0  0  0  0  0  0  0  0  0
    8.2160   34.9550   13.8270 O   0  0  0  0  0  0  0  0  0  0  0  0
   10.2970   34.3730   14.0530 O   0  0  0  0  0  1  0  0  0  0  0  0
    9.5860   37.4900   15.1530 N   0  0  0  0  0  0  0  0  0  0  0  0
    9.0370   37.0730   16.4460 C   0  0  0  0  0  0  0  0  0  0  0  0
    9.9670   37.3000   17.6450 C   0  0  0  0  0  0  0  0  0  0  0  0
    9.5480   38.0800   18.7520 C   0  0  0  0  0  0  0  0  0  0  0  0
   10.3960   38.2910   19.8520 C   0  0  0  0  0  0  0  0  0  0  0  0
   11.6820   37.7270   19.8660 C   0  0  0  0  0  0  0  0  0  0  0  0
   12.1230   36.9490   18.7780 C   0  0  0  0  0  0  0  0  0  0  0  0
   13.4170   36.3910   18.8080 C   0  0  0  0  0  0  0  0  0  0  0  0
   13.8790   35.6110   17.7320 C   0  0  0  0  0  0  0  0  0  0  0  0
   13.0440   35.3880   16.6230 C   0  0  0  0  0  0  0  0  0  0  0  0
   11.7510   35.9430   16.5860 C   0  0  0  0  0  0  0  0  0  0  0  0
   11.2700   36.7310   17.6610 C   0  0  0  0  0  0  0  0  0  0  0  0
   10.0020   38.7920   14.9070 C   0  0  0  0  0  0  0  0  0  0  0  0
    9.9950   39.9490   15.7130 C   0  0  0  0  0  0  0  0  0  0  0  0
   10.4940   41.1600   15.2050 C   0  0  0  0  0  0  0  0  0  0  0  0
   10.9980   41.2100   13.8940 C   0  0  0  0  0  0  0  0  0  0  0  0
   11.4840   42.3740   13.4000 F   0  0  0  0  0  0  0  0  0  0  0  0
   10.9980   40.0520   13.0940 C   0  0  0  0  0  0  0  0  0  0  0  0
   10.4960   38.8180   13.5750 C   0  0  0  0  0  0  0  0  0  0  0  0
   12.7820   39.0412   11.0666 H   0  0  0  0  0  0  0  0  0  0  0  0
   13.4105   37.6396   10.1353 H   0  0  0  0  0  0  0  0  0  0  0  0
   14.3104   39.1943   10.1353 H   0  0  0  0  0  0  0  0  0  0  0  0
   12.4374   40.2910    8.9298 H   0  0  0  0  0  0  0  0  0  0  0  0
   13.0342   38.8702    8.0102 H   0  0  0  0  0  0  0  0  0  0  0  0
    8.0253   37.1996   11.3961 H   0  0  0  0  0  0  0  0  0  0  0  0
    7.9106   38.1141    9.8543 H   0  0  0  0  0  0  0  0  0  0  0  0
    8.5284   36.4274    9.8543 H   0  0  0  0  0  0  0  0  0  0  0  0
   10.5451   36.0700   11.4451 H   0  0  0  0  0  0  0  0  0  0  0  0
   11.7406   37.4380   11.4112 H   0  0  0  0  0  0  0  0  0  0  0  0
    8.1091   37.6371   16.6214 H   0  0  0  0  0  0  0  0  0  0  0  0
    8.8792   35.9865   16.3787 H   0  0  0  0  0  0  0  0  0  0  0  0
    8.5430   38.5271   18.7497 H   0  0  0  0  0  0  0  0  0  0  0  0
   10.0526   38.8981   20.7025 H   0  0  0  0  0  0  0  0  0  0  0  0
   12.3455   37.8930   20.7275 H   0  0  0  0  0  0  0  0  0  0  0  0
   14.0687   36.5662   19.6767 H   0  0  0  0  0  0  0  0  0  0  0  0
   14.8896   35.1773   17.7583 H   0  0  0  0  0  0  0  0  0  0  0  0
   13.4025   34.7775   15.7811 H   0  0  0  0  0  0  0  0  0  0  0  0
   11.1067   35.7630   15.7128 H   0  0  0  0  0  0  0  0  0  0  0  0
    9.5993   39.9034   16.7383 H   0  0  0  0  0  0  0  0  0  0  0  0
   10.4903   42.0649   15.8304 H   0  0  0  0  0  0  0  0  0  0  0  0
   11.3975   40.1066   12.0706 H   0  0  0  0  0  0  0  0  0  0  0  0
  1  2  1  0
  2  3  1  0
  3  4  1  0
  4  5  2  0
  4  6  1  0
  6  7  1  0
  6  8  1  0
  8  9  1  0
  9 10  2  0
 10 11  1  0
 11 12  2  0
 11 13  1  0
 10 14  1  0
 14 15  1  0
 15 16  1  0
 16 17  2  0
 17 18  1  0
 18 19  2  0
 19 20  1  0
 20 21  2  0
 21 22  1  0
 22 23  2  0
 23 24  1  0
 24 25  2  0
 14 26  1  0
 26 27  2  0
 27 28  1  0
 28 29  2  0
 29 30  1  0
 29 31  1  0
 31 32  2  0
 32  9  1  0
 25 16  1  0
 32 26  1  0
 25 20  1  0
  1 33  1  0
  1 34  1  0
  1 35  1  0
  2 36  1  0
  2 37  1  0
  7 38  1  0
  7 39  1  0
  7 40  1  0
  8 41  1  0
  8 42  1  0
 15 43  1  0
 15 44  1  0
 17 45  1  0
 18 46  1  0
 19 47  1  0
 21 48  1  0
 22 49  1  0
 23 50  1  0
 24 51  1  0
 27 52  1  0
 28 53  1  0
 31 54  1  0
M  CHG  1  13  -1
M  END
>  <meeko>  (189) 
{"free_energy": -4.78, "intermolecular_energy": -7.16, "internal_energy": -2.27, "cluster_size": 10, "cluster_id": 93, "rank_in_cluster": 5}

$$$$

     RDKit          3D

 54 57  0  0  0  0  0  0  0  0999 V2000
    8.1190   35.4470    7.7110 C   0  0  0  0  0  0  0  0  0  0  0  0
    8.8530   34.7440    8.8550 C   0  0  0  0  0  0  0  0  0  0  0  0
    9.9790   35.5190    9.2330 O   0  0  0  0  0  0  0  0  0  0  0  0
    9.8310   36.8290    9.5270 C   0  0  0  0  0  0  0  0  0  0  0  0
   10.5980   37.7050    9.1240 O   0  0  0  0  0  0  0  0  0  0  0  0
    8.7010   37.0270   10.3320 N   0  0  0  0  0  0  0  0  0  0  0  0
    7.7050   38.0630   10.0360 C   0  0  0  0  0  0  0  0  0  0  0  0
    8.4730   36.2190   11.5370 C   0  0  0  0  0  0  0  0  0  0  0  0
    9.2040   36.7660   12.7400 C   0  0  0  0  0  0  0  0  0  0  0  0
    9.5270   36.1250   13.9230 C   0  0  0  0  0  0  0  0  0  0  0  0
    9.2810   34.7090   14.3390 C   0  0  0  0  0  0  0  0  0  0  0  0
   10.2510   34.0180   14.7180 O   0  0  0  0  0  0  0  0  0  0  0  0
    8.1310   34.2220   14.2900 O   0  0  0  0  0  1  0  0  0  0  0  0
   10.1540   37.0510   14.7840 N   0  0  0  0  0  0  0  0  0  0  0  0
   10.6770   36.8280   16.1350 C   0  0  0  0  0  0  0  0  0  0  0  0
    9.6160   36.8070   17.2430 C   0  0  0  0  0  0  0  0  0  0  0  0
    8.2630   36.5030   16.9470 C   0  0  0  0  0  0  0  0  0  0  0  0
    7.2880   36.4830   17.9580 C   0  0  0  0  0  0  0  0  0  0  0  0
    7.6460   36.7680   19.2860 C   0  0  0  0  0  0  0  0  0  0  0  0
    8.9830   37.0740   19.6050 C   0  0  0  0  0  0  0  0  0  0  0  0
    9.3250   37.3580   20.9430 C   0  0  0  0  0  0  0  0  0  0  0  0
   10.6530   37.6660   21.2850 C   0  0  0  0  0  0  0  0  0  0  0  0
   11.6440   37.6910   20.2880 C   0  0  0  0  0  0  0  0  0  0  0  0
   11.3090   37.4090   18.9500 C   0  0  0  0  0  0  0  0  0  0  0  0
    9.9760   37.0960   18.5880 C   0  0  0  0  0  0  0  0  0  0  0  0
   10.2320   38.2850   14.1520 C   0  0  0  0  0  0  0  0  0  0  0  0
   10.7460   39.5280   14.5760 C   0  0  0  0  0  0  0  0  0  0  0  0
   10.7040   40.6350   13.7120 C   0  0  0  0  0  0  0  0  0  0  0  0
   10.1500   40.4960   12.4280 C   0  0  0  0  0  0  0  0  0  0  0  0
   10.1100   41.5580   11.5890 F   0  0  0  0  0  0  0  0  0  0  0  0
    9.6350   39.2520   12.0130 C   0  0  0  0  0  0  0  0  0  0  0  0
    9.6570   38.1200   12.8630 C   0  0  0  0  0  0  0  0  0  0  0  0
    7.3832   36.1517    8.1257 H   0  0  0  0  0  0  0  0  0  0  0  0
    8.8443   35.9959    7.0925 H   0  0  0  0  0  0  0  0  0  0  0  0
    7.6018   34.6987    7.0925 H   0  0  0  0  0  0  0  0  0  0  0  0
    8.1757   34.6355    9.7149 H   0  0  0  0  0  0  0  0  0  0  0  0
    9.1839   33.7482    8.5249 H   0  0  0  0  0  0  0  0  0  0  0  0
    7.3111   38.4727   10.9778 H   0  0  0  0  0  0  0  0  0  0  0  0
    8.1761   38.8689    9.4541 H   0  0  0  0  0  0  0  0  0  0  0  0
    6.8811   37.6240    9.4541 H   0  0  0  0  0  0  0  0  0  0  0  0
    7.3948   36.2045   11.7545 H   0  0  0  0  0  0  0  0  0  0  0  0
    8.8567   35.2068   11.3413 H   0  0  0  0  0  0  0  0  0  0  0  0
   11.1994   35.8600   16.1437 H   0  0  0  0  0  0  0  0  0  0  0  0
   11.3363   37.6805   16.3553 H   0  0  0  0  0  0  0  0  0  0  0  0
    7.9725   36.2794   15.9099 H   0  0  0  0  0  0  0  0  0  0  0  0
    6.2434   36.2440   17.7095 H   0  0  0  0  0  0  0  0  0  0  0  0
    6.8818   36.7522   20.0770 H   0  0  0  0  0  0  0  0  0  0  0  0
    8.5492   37.3384   21.7226 H   0  0  0  0  0  0  0  0  0  0  0  0
   10.9163   37.8869   22.3299 H   0  0  0  0  0  0  0  0  0  0  0  0
   12.6839   37.9315   20.5541 H   0  0  0  0  0  0  0  0  0  0  0  0
   12.0913   37.4320   18.1771 H   0  0  0  0  0  0  0  0  0  0  0  0
   11.1792   39.6306   15.5819 H   0  0  0  0  0  0  0  0  0  0  0  0
   11.1031   41.6064   14.0392 H   0  0  0  0  0  0  0  0  0  0  0  0
    9.2056   39.1580   11.0046 H   0  0  0  0  0  0  0  0  0  0  0  0
  1  2  1  0
  2  3  1  0
  3  4  1  0
  4  5  2  0
  4  6  1  0
  6  7  1  0
  6  8  1  0
  8  9  1  0
  9 10  2  0
 10 11  1  0
 11 12  2  0
 11 13  1  0
 10 14  1  0
 14 15  1  0
 15 16  1  0
 16 17  2  0
 17 18  1  0
 18 19  2  0
 19 20  1  0
 20 21  2  0
 21 22  1  0
 22 23  2  0
 23 24  1  0
 24 25  2  0
 14 26  1  0
 26 27  2  0
 27 28  1  0
 28 29  2  0
 29 30  1  0
 29 31  1  0
 31 32  2  0
 32  9  1  0
 25 16  1  0
 32 26  1  0
 25 20  1  0
  1 33  1  0
  1 34  1  0
  1 35  1  0
  2 36  1  0
  2 37  1  0
  7 38  1  0
  7 39  1  0
  7 40  1  0
  8 41  1  0
  8 42  1  0
 15 43  1  0
 15 44  1  0
 17 45  1  0
 18 46  1  0
 19 47  1  0
 21 48  1  0
 22 49  1  0
 23 50  1  0
 24 51  1  0
 27 52  1  0
 28 53  1  0
 31 54  1  0
M  CHG  1  13  -1
M  END
>  <meeko>  (190) 
{"free_energy": -5.93, "intermolecular_energy": -8.32, "internal_energy": -1.48, "cluster_size": 136, "cluster_id": 23, "rank_in_cluster": 53}

$$$$

     RDKit          3D

 54 57  0  0  0  0  0  0  0  0999 V2000
    8.4260   39.5870    8.7660 C   0  0  0  0  0  0  0  0  0  0  0  0
    9.2020   40.6150    9.5930 C   0  0  0  0  0  0  0  0  0  0  0  0
   10.5880   40.4870    9.3150 O   0  0  0  0  0  0  0  0  0  0  0  0
   11.2500   39.3690    9.6800 C   0  0  0  0  0  0  0  0  0  0  0  0
   11.2780   38.3440    8.9960 O   0  0  0  0  0  0  0  0  0  0  0  0
   11.8850   39.5540   10.9150 N   0  0  0  0  0  0  0  0  0  0  0  0
   12.1750   40.8880   11.4500 C   0  0  0  0  0  0  0  0  0  0  0  0
   12.3190   38.4090   11.7270 C   0  0  0  0  0  0  0  0  0  0  0  0
   11.4880   38.2470   12.9780 C   0  0  0  0  0  0  0  0  0  0  0  0
   10.1620   37.8700   13.0950 C   0  0  0  0  0  0  0  0  0  0  0  0
    9.1840   37.4830   12.0320 C   0  0  0  0  0  0  0  0  0  0  0  0
    8.9020   36.2730   11.8870 O   0  0  0  0  0  0  0  0  0  0  0  0
    8.6720   38.3500   11.2910 O   0  0  0  0  0  1  0  0  0  0  0  0
    9.7950   37.9180   14.4570 N   0  0  0  0  0  0  0  0  0  0  0  0
    8.4990   37.5950   15.0620 C   0  0  0  0  0  0  0  0  0  0  0  0
    8.5320   36.4490   16.0820 C   0  0  0  0  0  0  0  0  0  0  0  0
    7.7100   36.4810   17.2360 C   0  0  0  0  0  0  0  0  0  0  0  0
    7.7360   35.4330   18.1730 C   0  0  0  0  0  0  0  0  0  0  0  0
    8.5880   34.3350   17.9740 C   0  0  0  0  0  0  0  0  0  0  0  0
    9.4160   34.2810   16.8370 C   0  0  0  0  0  0  0  0  0  0  0  0
   10.2660   33.1710   16.6540 C   0  0  0  0  0  0  0  0  0  0  0  0
   11.1020   33.0960   15.5260 C   0  0  0  0  0  0  0  0  0  0  0  0
   11.0890   34.1330   14.5760 C   0  0  0  0  0  0  0  0  0  0  0  0
   10.2430   35.2450   14.7540 C   0  0  0  0  0  0  0  0  0  0  0  0
    9.3950   35.3360   15.8840 C   0  0  0  0  0  0  0  0  0  0  0  0
   10.8860   38.3270   15.2120 C   0  0  0  0  0  0  0  0  0  0  0  0
   11.0430   38.5460   16.5960 C   0  0  0  0  0  0  0  0  0  0  0  0
   12.2860   38.9580   17.1040 C   0  0  0  0  0  0  0  0  0  0  0  0
   13.3690   39.1470   16.2280 C   0  0  0  0  0  0  0  0  0  0  0  0
   14.5710   39.5400   16.7120 F   0  0  0  0  0  0  0  0  0  0  0  0
   13.2040   38.9290   14.8460 C   0  0  0  0  0  0  0  0  0  0  0  0
   11.9620   38.5210   14.3040 C   0  0  0  0  0  0  0  0  0  0  0  0
    7.9025   38.8935    9.4406 H   0  0  0  0  0  0  0  0  0  0  0  0
    7.6921   40.1055    8.1315 H   0  0  0  0  0  0  0  0  0  0  0  0
    9.1257   39.0232    8.1315 H   0  0  0  0  0  0  0  0  0  0  0  0
    8.8659   41.6287    9.3293 H   0  0  0  0  0  0  0  0  0  0  0  0
    9.0221   40.4397   10.6639 H   0  0  0  0  0  0  0  0  0  0  0  0
   12.1671   40.8518   12.5494 H   0  0  0  0  0  0  0  0  0  0  0  0
   13.1654   41.2157   11.1010 H   0  0  0  0  0  0  0  0  0  0  0  0
   11.4101   41.5973   11.1010 H   0  0  0  0  0  0  0  0  0  0  0  0
   12.2319   37.4936   11.1232 H   0  0  0  0  0  0  0  0  0  0  0  0
   13.3596   38.5892   12.0346 H   0  0  0  0  0  0  0  0  0  0  0  0
    8.1253   38.4956   15.5713 H   0  0  0  0  0  0  0  0  0  0  0  0
    7.8491   37.2593   14.2404 H   0  0  0  0  0  0  0  0  0  0  0  0
    7.0415   37.3388   17.4012 H   0  0  0  0  0  0  0  0  0  0  0  0
    7.0890   35.4734   19.0617 H   0  0  0  0  0  0  0  0  0  0  0  0
    8.6085   33.5157   18.7077 H   0  0  0  0  0  0  0  0  0  0  0  0
   10.2751   32.3600   17.3971 H   0  0  0  0  0  0  0  0  0  0  0  0
   11.7643   32.2288   15.3869 H   0  0  0  0  0  0  0  0  0  0  0  0
   11.7410   34.0755   13.6919 H   0  0  0  0  0  0  0  0  0  0  0  0
   10.2412   36.0520   14.0065 H   0  0  0  0  0  0  0  0  0  0  0  0
   10.1928   38.3943   17.2773 H   0  0  0  0  0  0  0  0  0  0  0  0
   12.4115   39.1320   18.1829 H   0  0  0  0  0  0  0  0  0  0  0  0
   14.0606   39.0794   14.1725 H   0  0  0  0  0  0  0  0  0  0  0  0
  1  2  1  0
  2  3  1  0
  3  4  1  0
  4  5  2  0
  4  6  1  0
  6  7  1  0
  6  8  1  0
  8  9  1  0
  9 10  2  0
 10 11  1  0
 11 12  2  0
 11 13  1  0
 10 14  1  0
 14 15  1  0
 15 16  1  0
 16 17  2  0
 17 18  1  0
 18 19  2  0
 19 20  1  0
 20 21  2  0
 21 22  1  0
 22 23  2  0
 23 24  1  0
 24 25  2  0
 14 26  1  0
 26 27  2  0
 27 28  1  0
 28 29  2  0
 29 30  1  0
 29 31  1  0
 31 32  2  0
 32  9  1  0
 25 16  1  0
 32 26  1  0
 25 20  1  0
  1 33  1  0
  1 34  1  0
  1 35  1  0
  2 36  1  0
  2 37  1  0
  7 38  1  0
  7 39  1  0
  7 40  1  0
  8 41  1  0
  8 42  1  0
 15 43  1  0
 15 44  1  0
 17 45  1  0
 18 46  1  0
 19 47  1  0
 21 48  1  0
 22 49  1  0
 23 50  1  0
 24 51  1  0
 27 52  1  0
 28 53  1  0
 31 54  1  0
M  CHG  1  13  -1
M  END
>  <meeko>  (191) 
{"free_energy": -4.83, "intermolecular_energy": -7.21, "internal_energy": -2.05, "cluster_size": 73, "cluster_id": 49, "rank_in_cluster": 64}

$$$$

     RDKit          3D

 54 57  0  0  0  0  0  0  0  0999 V2000
   13.4780   43.7660   16.0460 C   0  0  0  0  0  0  0  0  0  0  0  0
   13.5390   42.7820   14.8750 C   0  0  0  0  0  0  0  0  0  0  0  0
   12.4250   41.9070   14.9420 O   0  0  0  0  0  0  0  0  0  0  0  0
   11.4070   42.0390   14.0650 C   0  0  0  0  0  0  0  0  0  0  0  0
   10.4200   42.7460   14.2750 O   0  0  0  0  0  0  0  0  0  0  0  0
   11.6470   41.2770   12.9150 N   0  0  0  0  0  0  0  0  0  0  0  0
   10.9720   41.5520   11.6420 C   0  0  0  0  0  0  0  0  0  0  0  0
   12.5730   40.1360   12.9370 C   0  0  0  0  0  0  0  0  0  0  0  0
   11.8830   38.8330   12.6070 C   0  0  0  0  0  0  0  0  0  0  0  0
   12.0310   38.0340   11.4870 C   0  0  0  0  0  0  0  0  0  0  0  0
   12.9320   38.2050   10.3050 C   0  0  0  0  0  0  0  0  0  0  0  0
   13.9180   37.4460   10.1870 O   0  0  0  0  0  0  0  0  0  0  0  0
   12.7140   39.1030    9.4620 O   0  0  0  0  0  1  0  0  0  0  0  0
   11.1350   36.9470   11.5830 N   0  0  0  0  0  0  0  0  0  0  0  0
   10.9420   35.8410   10.6410 C   0  0  0  0  0  0  0  0  0  0  0  0
    9.6270   35.8870    9.8520 C   0  0  0  0  0  0  0  0  0  0  0  0
    8.9520   34.6930    9.4960 C   0  0  0  0  0  0  0  0  0  0  0  0
    7.7470   34.7310    8.7740 C   0  0  0  0  0  0  0  0  0  0  0  0
    7.1960   35.9650    8.3910 C   0  0  0  0  0  0  0  0  0  0  0  0
    7.8480   37.1640    8.7310 C   0  0  0  0  0  0  0  0  0  0  0  0
    7.2810   38.3940    8.3390 C   0  0  0  0  0  0  0  0  0  0  0  0
    7.9160   39.6050    8.6670 C   0  0  0  0  0  0  0  0  0  0  0  0
    9.1210   39.5880    9.3910 C   0  0  0  0  0  0  0  0  0  0  0  0
    9.6940   38.3640    9.7850 C   0  0  0  0  0  0  0  0  0  0  0  0
    9.0670   37.1350    9.4630 C   0  0  0  0  0  0  0  0  0  0  0  0
   10.4140   37.0520   12.7650 C   0  0  0  0  0  0  0  0  0  0  0  0
    9.3990   36.2460   13.3210 C   0  0  0  0  0  0  0  0  0  0  0  0
    8.8360   36.5860   14.5620 C   0  0  0  0  0  0  0  0  0  0  0  0
    9.2880   37.7290   15.2430 C   0  0  0  0  0  0  0  0  0  0  0  0
    8.7510   38.0600   16.4410 F   0  0  0  0  0  0  0  0  0  0  0  0
   10.2990   38.5320   14.6790 C   0  0  0  0  0  0  0  0  0  0  0  0
   10.8810   38.2190   13.4270 C   0  0  0  0  0  0  0  0  0  0  0  0
   13.5125   43.2099   16.9944 H   0  0  0  0  0  0  0  0  0  0  0  0
   14.3353   44.4532   15.9925 H   0  0  0  0  0  0  0  0  0  0  0  0
   12.5424   44.3420   15.9925 H   0  0  0  0  0  0  0  0  0  0  0  0
   13.5137   43.3376   13.9260 H   0  0  0  0  0  0  0  0  0  0  0  0
   14.4703   42.1992   14.9305 H   0  0  0  0  0  0  0  0  0  0  0  0
    9.9698   41.9603   11.8391 H   0  0  0  0  0  0  0  0  0  0  0  0
   11.5589   42.2827   11.0661 H   0  0  0  0  0  0  0  0  0  0  0  0
   10.8812   40.6192   11.0661 H   0  0  0  0  0  0  0  0  0  0  0  0
   13.3692   40.3119   12.1986 H   0  0  0  0  0  0  0  0  0  0  0  0
   12.9815   40.0529   13.9550 H   0  0  0  0  0  0  0  0  0  0  0  0
   11.7734   35.8564    9.9209 H   0  0  0  0  0  0  0  0  0  0  0  0
   10.9071   34.9229   11.2459 H   0  0  0  0  0  0  0  0  0  0  0  0
    9.3776   33.7220    9.7892 H   0  0  0  0  0  0  0  0  0  0  0  0
    7.2351   33.7942    8.5087 H   0  0  0  0  0  0  0  0  0  0  0  0
    6.2535   35.9937    7.8245 H   0  0  0  0  0  0  0  0  0  0  0  0
    6.3374   38.4063    7.7739 H   0  0  0  0  0  0  0  0  0  0  0  0
    7.4713   40.5625    8.3581 H   0  0  0  0  0  0  0  0  0  0  0  0
    9.6178   40.5345    9.6505 H   0  0  0  0  0  0  0  0  0  0  0  0
   10.6385   38.3618   10.3488 H   0  0  0  0  0  0  0  0  0  0  0  0
    9.0488   35.3524   12.7835 H   0  0  0  0  0  0  0  0  0  0  0  0
    8.0442   35.9599   14.9992 H   0  0  0  0  0  0  0  0  0  0  0  0
   10.6442   39.4229   15.2242 H   0  0  0  0  0  0  0  0  0  0  0  0
  1  2  1  0
  2  3  1  0
  3  4  1  0
  4  5  2  0
  4  6  1  0
  6  7  1  0
  6  8  1  0
  8  9  1  0
  9 10  2  0
 10 11  1  0
 11 12  2  0
 11 13  1  0
 10 14  1  0
 14 15  1  0
 15 16  1  0
 16 17  2  0
 17 18  1  0
 18 19  2  0
 19 20  1  0
 20 21  2  0
 21 22  1  0
 22 23  2  0
 23 24  1  0
 24 25  2  0
 14 26  1  0
 26 27  2  0
 27 28  1  0
 28 29  2  0
 29 30  1  0
 29 31  1  0
 31 32  2  0
 32  9  1  0
 25 16  1  0
 32 26  1  0
 25 20  1  0
  1 33  1  0
  1 34  1  0
  1 35  1  0
  2 36  1  0
  2 37  1  0
  7 38  1  0
  7 39  1  0
  7 40  1  0
  8 41  1  0
  8 42  1  0
 15 43  1  0
 15 44  1  0
 17 45  1  0
 18 46  1  0
 19 47  1  0
 21 48  1  0
 22 49  1  0
 23 50  1  0
 24 51  1  0
 27 52  1  0
 28 53  1  0
 31 54  1  0
M  CHG  1  13  -1
M  END
>  <meeko>  (192) 
{"free_energy": -5.43, "intermolecular_energy": -7.81, "internal_energy": -1.86, "cluster_size": 42, "cluster_id": 46, "rank_in_cluster": 19}

$$$$

     RDKit          3D

 54 57  0  0  0  0  0  0  0  0999 V2000
   10.8130   33.2190   15.4910 C   0  0  0  0  0  0  0  0  0  0  0  0
    9.3280   33.5120   15.2690 C   0  0  0  0  0  0  0  0  0  0  0  0
    8.7410   33.9070   16.4980 O   0  0  0  0  0  0  0  0  0  0  0  0
    8.9240   35.1620   16.9630 C   0  0  0  0  0  0  0  0  0  0  0  0
    8.6180   35.5130   18.1030 O   0  0  0  0  0  0  0  0  0  0  0  0
    9.5040   35.9710   15.9780 N   0  0  0  0  0  0  0  0  0  0  0  0
   10.9310   36.3130   15.9890 C   0  0  0  0  0  0  0  0  0  0  0  0
    8.6990   36.5450   14.8920 C   0  0  0  0  0  0  0  0  0  0  0  0
    9.4900   37.5100   14.0400 C   0  0  0  0  0  0  0  0  0  0  0  0
   10.1270   38.6790   14.4190 C   0  0  0  0  0  0  0  0  0  0  0  0
   10.2460   39.3050   15.7730 C   0  0  0  0  0  0  0  0  0  0  0  0
    9.2790   39.2210   16.5600 O   0  0  0  0  0  0  0  0  0  0  0  0
   11.2860   39.9160   16.1020 O   0  0  0  0  0  1  0  0  0  0  0  0
   10.6850   39.2840   13.2730 N   0  0  0  0  0  0  0  0  0  0  0  0
   11.4570   40.5260   13.1840 C   0  0  0  0  0  0  0  0  0  0  0  0
   10.7110   41.7850   13.6470 C   0  0  0  0  0  0  0  0  0  0  0  0
   11.2050   42.5680   14.7200 C   0  0  0  0  0  0  0  0  0  0  0  0
   10.5240   43.7210   15.1470 C   0  0  0  0  0  0  0  0  0  0  0  0
    9.3350   44.1110   14.5110 C   0  0  0  0  0  0  0  0  0  0  0  0
    8.8230   43.3490   13.4440 C   0  0  0  0  0  0  0  0  0  0  0  0
    7.6270   43.7550   12.8170 C   0  0  0  0  0  0  0  0  0  0  0  0
    7.0970   43.0090   11.7500 C   0  0  0  0  0  0  0  0  0  0  0  0
    7.7640   41.8520   11.3070 C   0  0  0  0  0  0  0  0  0  0  0  0
    8.9580   41.4410   11.9290 C   0  0  0  0  0  0  0  0  0  0  0  0
    9.5060   42.1810   13.0050 C   0  0  0  0  0  0  0  0  0  0  0  0
   10.4050   38.5020   12.1600 C   0  0  0  0  0  0  0  0  0  0  0  0
   10.7180   38.6640   10.7940 C   0  0  0  0  0  0  0  0  0  0  0  0
   10.3100   37.6950    9.8620 C   0  0  0  0  0  0  0  0  0  0  0  0
    9.5930   36.5670   10.2980 C   0  0  0  0  0  0  0  0  0  0  0  0
    9.2010   35.6280    9.4050 F   0  0  0  0  0  0  0  0  0  0  0  0
    9.2810   36.4140   11.6630 C   0  0  0  0  0  0  0  0  0  0  0  0
    9.6720   37.3770   12.6250 C   0  0  0  0  0  0  0  0  0  0  0  0
   11.0213   33.1779   16.5703 H   0  0  0  0  0  0  0  0  0  0  0  0
   11.0689   32.2531   15.0312 H   0  0  0  0  0  0  0  0  0  0  0  0
   11.4166   34.0154   15.0312 H   0  0  0  0  0  0  0  0  0  0  0  0
    9.2190   34.3216   14.5324 H   0  0  0  0  0  0  0  0  0  0  0  0
    8.8255   32.6084   14.8934 H   0  0  0  0  0  0  0  0  0  0  0  0
   11.2800   36.3966   17.0288 H   0  0  0  0  0  0  0  0  0  0  0  0
   11.5007   35.5259   15.4732 H   0  0  0  0  0  0  0  0  0  0  0  0
   11.0820   37.2728   15.4732 H   0  0  0  0  0  0  0  0  0  0  0  0
    8.3325   35.7278   14.2534 H   0  0  0  0  0  0  0  0  0  0  0  0
    7.8675   37.1024   15.3480 H   0  0  0  0  0  0  0  0  0  0  0  0
   12.3573   40.4141   13.8060 H   0  0  0  0  0  0  0  0  0  0  0  0
   11.6806   40.6746   12.1173 H   0  0  0  0  0  0  0  0  0  0  0  0
   12.1348   42.2691   15.2260 H   0  0  0  0  0  0  0  0  0  0  0  0
   10.9231   44.3182   15.9802 H   0  0  0  0  0  0  0  0  0  0  0  0
    8.8027   45.0132   14.8468 H   0  0  0  0  0  0  0  0  0  0  0  0
    7.1064   44.6596   13.1644 H   0  0  0  0  0  0  0  0  0  0  0  0
    6.1639   43.3287   11.2630 H   0  0  0  0  0  0  0  0  0  0  0  0
    7.3511   41.2669   10.4720 H   0  0  0  0  0  0  0  0  0  0  0  0
    9.4713   40.5347   11.5753 H   0  0  0  0  0  0  0  0  0  0  0  0
   11.2807   39.5478   10.4590 H   0  0  0  0  0  0  0  0  0  0  0  0
   10.5505   37.8184    8.7957 H   0  0  0  0  0  0  0  0  0  0  0  0
    8.7205   35.5256   11.9895 H   0  0  0  0  0  0  0  0  0  0  0  0
  1  2  1  0
  2  3  1  0
  3  4  1  0
  4  5  2  0
  4  6  1  0
  6  7  1  0
  6  8  1  0
  8  9  1  0
  9 10  2  0
 10 11  1  0
 11 12  2  0
 11 13  1  0
 10 14  1  0
 14 15  1  0
 15 16  1  0
 16 17  2  0
 17 18  1  0
 18 19  2  0
 19 20  1  0
 20 21  2  0
 21 22  1  0
 22 23  2  0
 23 24  1  0
 24 25  2  0
 14 26  1  0
 26 27  2  0
 27 28  1  0
 28 29  2  0
 29 30  1  0
 29 31  1  0
 31 32  2  0
 32  9  1  0
 25 16  1  0
 32 26  1  0
 25 20  1  0
  1 33  1  0
  1 34  1  0
  1 35  1  0
  2 36  1  0
  2 37  1  0
  7 38  1  0
  7 39  1  0
  7 40  1  0
  8 41  1  0
  8 42  1  0
 15 43  1  0
 15 44  1  0
 17 45  1  0
 18 46  1  0
 19 47  1  0
 21 48  1  0
 22 49  1  0
 23 50  1  0
 24 51  1  0
 27 52  1  0
 28 53  1  0
 31 54  1  0
M  CHG  1  13  -1
M  END
>  <meeko>  (193) 
{"free_energy": -5.18, "intermolecular_energy": -7.57, "internal_energy": -1.61, "cluster_size": 35, "cluster_id": 50, "rank_in_cluster": 23}

$$$$

     RDKit          3D

 54 57  0  0  0  0  0  0  0  0999 V2000
   10.5080   33.2230   15.0320 C   0  0  0  0  0  0  0  0  0  0  0  0
   11.6390   33.7090   15.9430 C   0  0  0  0  0  0  0  0  0  0  0  0
   11.3280   35.0080   16.4210 O   0  0  0  0  0  0  0  0  0  0  0  0
   10.1040   35.2670   16.9280 C   0  0  0  0  0  0  0  0  0  0  0  0
    9.3050   34.3880   17.2530 O   0  0  0  0  0  0  0  0  0  0  0  0
    9.8970   36.6490   17.0310 N   0  0  0  0  0  0  0  0  0  0  0  0
   10.6570   37.4840   17.9670 C   0  0  0  0  0  0  0  0  0  0  0  0
    8.8800   37.3290   16.2180 C   0  0  0  0  0  0  0  0  0  0  0  0
    9.4460   37.8630   14.9230 C   0  0  0  0  0  0  0  0  0  0  0  0
    9.6790   37.1900   13.7360 C   0  0  0  0  0  0  0  0  0  0  0  0
    9.4100   35.7620   13.3810 C   0  0  0  0  0  0  0  0  0  0  0  0
   10.3110   35.1040   12.8170 O   0  0  0  0  0  0  0  0  0  0  0  0
    8.2990   35.2430   13.6260 O   0  0  0  0  0  1  0  0  0  0  0  0
   10.2770   38.0810   12.8190 N   0  0  0  0  0  0  0  0  0  0  0  0
   10.6920   37.8220   11.4370 C   0  0  0  0  0  0  0  0  0  0  0  0
    9.6570   38.2010   10.3710 C   0  0  0  0  0  0  0  0  0  0  0  0
    9.4020   39.5590   10.0560 C   0  0  0  0  0  0  0  0  0  0  0  0
    8.4540   39.9110    9.0790 C   0  0  0  0  0  0  0  0  0  0  0  0
    7.7410   38.9100    8.4000 C   0  0  0  0  0  0  0  0  0  0  0  0
    7.9750   37.5540    8.6960 C   0  0  0  0  0  0  0  0  0  0  0  0
    7.2490   36.5620    8.0050 C   0  0  0  0  0  0  0  0  0  0  0  0
    7.4650   35.2010    8.2840 C   0  0  0  0  0  0  0  0  0  0  0  0
    8.4100   34.8280    9.2570 C   0  0  0  0  0  0  0  0  0  0  0  0
    9.1370   35.8140    9.9510 C   0  0  0  0  0  0  0  0  0  0  0  0
    8.9320   37.1890    9.6820 C   0  0  0  0  0  0  0  0  0  0  0  0
   10.4270   39.3240   13.4190 C   0  0  0  0  0  0  0  0  0  0  0  0
   10.9730   40.5360   12.9470 C   0  0  0  0  0  0  0  0  0  0  0  0
   10.9900   41.6670   13.7800 C   0  0  0  0  0  0  0  0  0  0  0  0
   10.4610   41.5840   15.0790 C   0  0  0  0  0  0  0  0  0  0  0  0
   10.4720   42.6730   15.8850 F   0  0  0  0  0  0  0  0  0  0  0  0
    9.9210   40.3700   15.5450 C   0  0  0  0  0  0  0  0  0  0  0  0
    9.8950   39.2110   14.7320 C   0  0  0  0  0  0  0  0  0  0  0  0
    9.6704   32.8631   15.6475 H   0  0  0  0  0  0  0  0  0  0  0  0
   10.1660   34.0536   14.3971 H   0  0  0  0  0  0  0  0  0  0  0  0
   10.8752   32.4032   14.3971 H   0  0  0  0  0  0  0  0  0  0  0  0
   11.7477   33.0203   16.7938 H   0  0  0  0  0  0  0  0  0  0  0  0
   12.5818   33.7395   15.3771 H   0  0  0  0  0  0  0  0  0  0  0  0
   10.4015   37.2033   18.9994 H   0  0  0  0  0  0  0  0  0  0  0  0
   11.7340   37.3330   17.8018 H   0  0  0  0  0  0  0  0  0  0  0  0
   10.4056   38.5421   17.8018 H   0  0  0  0  0  0  0  0  0  0  0  0
    8.0769   36.6143   15.9852 H   0  0  0  0  0  0  0  0  0  0  0  0
    8.5009   38.1834   16.7979 H   0  0  0  0  0  0  0  0  0  0  0  0
   11.6095   38.3967   11.2422 H   0  0  0  0  0  0  0  0  0  0  0  0
   10.8345   36.7343   11.3561 H   0  0  0  0  0  0  0  0  0  0  0  0
    9.9544   40.3502   10.5841 H   0  0  0  0  0  0  0  0  0  0  0  0
    8.2710   40.9705    8.8467 H   0  0  0  0  0  0  0  0  0  0  0  0
    6.9990   39.1857    7.6362 H   0  0  0  0  0  0  0  0  0  0  0  0
    6.5103   36.8544    7.2442 H   0  0  0  0  0  0  0  0  0  0  0  0
    6.8967   34.4301    7.7430 H   0  0  0  0  0  0  0  0  0  0  0  0
    8.5813   33.7637    9.4761 H   0  0  0  0  0  0  0  0  0  0  0  0
    9.8729   35.5126   10.7111 H   0  0  0  0  0  0  0  0  0  0  0  0
   11.3846   40.5954   11.9287 H   0  0  0  0  0  0  0  0  0  0  0  0
   11.4158   42.6139   13.4167 H   0  0  0  0  0  0  0  0  0  0  0  0
    9.5099   40.3208   16.5641 H   0  0  0  0  0  0  0  0  0  0  0  0
  1  2  1  0
  2  3  1  0
  3  4  1  0
  4  5  2  0
  4  6  1  0
  6  7  1  0
  6  8  1  0
  8  9  1  0
  9 10  2  0
 10 11  1  0
 11 12  2  0
 11 13  1  0
 10 14  1  0
 14 15  1  0
 15 16  1  0
 16 17  2  0
 17 18  1  0
 18 19  2  0
 19 20  1  0
 20 21  2  0
 21 22  1  0
 22 23  2  0
 23 24  1  0
 24 25  2  0
 14 26  1  0
 26 27  2  0
 27 28  1  0
 28 29  2  0
 29 30  1  0
 29 31  1  0
 31 32  2  0
 32  9  1  0
 25 16  1  0
 32 26  1  0
 25 20  1  0
  1 33  1  0
  1 34  1  0
  1 35  1  0
  2 36  1  0
  2 37  1  0
  7 38  1  0
  7 39  1  0
  7 40  1  0
  8 41  1  0
  8 42  1  0
 15 43  1  0
 15 44  1  0
 17 45  1  0
 18 46  1  0
 19 47  1  0
 21 48  1  0
 22 49  1  0
 23 50  1  0
 24 51  1  0
 27 52  1  0
 28 53  1  0
 31 54  1  0
M  CHG  1  13  -1
M  END
>  <meeko>  (194) 
{"free_energy": -7.1, "intermolecular_energy": -9.49, "internal_energy": -2.06, "cluster_size": 163, "cluster_id": 4, "rank_in_cluster": 21}

$$$$

     RDKit          3D

 54 57  0  0  0  0  0  0  0  0999 V2000
   11.5640   40.8850   19.4500 C   0  0  0  0  0  0  0  0  0  0  0  0
   12.2870   39.6490   19.9900 C   0  0  0  0  0  0  0  0  0  0  0  0
   13.2080   39.1840   19.0170 O   0  0  0  0  0  0  0  0  0  0  0  0
   12.9130   39.2870   17.7030 C   0  0  0  0  0  0  0  0  0  0  0  0
   13.4360   40.1140   16.9540 O   0  0  0  0  0  0  0  0  0  0  0  0
   11.9570   38.3310   17.3380 N   0  0  0  0  0  0  0  0  0  0  0  0
   12.2500   36.8940   17.3390 C   0  0  0  0  0  0  0  0  0  0  0  0
   10.6100   38.7280   16.9040 C   0  0  0  0  0  0  0  0  0  0  0  0
    9.5950   37.6290   17.1110 C   0  0  0  0  0  0  0  0  0  0  0  0
    8.5970   37.5390   18.0650 C   0  0  0  0  0  0  0  0  0  0  0  0
    8.2130   38.5080   19.1370 C   0  0  0  0  0  0  0  0  0  0  0  0
    7.3740   39.3960   18.8720 O   0  0  0  0  0  0  0  0  0  0  0  0
    8.7360   38.4440   20.2710 O   0  0  0  0  0  1  0  0  0  0  0  0
    7.9340   36.3020   17.9140 N   0  0  0  0  0  0  0  0  0  0  0  0
    6.8080   35.7720   18.6880 C   0  0  0  0  0  0  0  0  0  0  0  0
    5.4350   36.3330   18.2960 C   0  0  0  0  0  0  0  0  0  0  0  0
    4.9380   36.1790   16.9770 C   0  0  0  0  0  0  0  0  0  0  0  0
    3.6800   36.6910   16.6140 C   0  0  0  0  0  0  0  0  0  0  0  0
    2.8970   37.3680   17.5620 C   0  0  0  0  0  0  0  0  0  0  0  0
    3.3690   37.5350   18.8770 C   0  0  0  0  0  0  0  0  0  0  0  0
    2.5690   38.2180   19.8170 C   0  0  0  0  0  0  0  0  0  0  0  0
    3.0210   38.3970   21.1360 C   0  0  0  0  0  0  0  0  0  0  0  0
    4.2760   37.8910   21.5200 C   0  0  0  0  0  0  0  0  0  0  0  0
    5.0800   37.2090   20.5870 C   0  0  0  0  0  0  0  0  0  0  0  0
    4.6400   37.0200   19.2530 C   0  0  0  0  0  0  0  0  0  0  0  0
    8.5090   35.6000   16.8620 C   0  0  0  0  0  0  0  0  0  0  0  0
    8.2310   34.3290   16.3180 C   0  0  0  0  0  0  0  0  0  0  0  0
    8.9770   33.8570   15.2250 C   0  0  0  0  0  0  0  0  0  0  0  0
    9.9960   34.6570   14.6790 C   0  0  0  0  0  0  0  0  0  0  0  0
   10.7160   34.2090   13.6230 F   0  0  0  0  0  0  0  0  0  0  0  0
   10.2690   35.9240   15.2300 C   0  0  0  0  0  0  0  0  0  0  0  0
    9.5400   36.4240   16.3360 C   0  0  0  0  0  0  0  0  0  0  0  0
   11.2060   41.4970   20.2910 H   0  0  0  0  0  0  0  0  0  0  0  0
   12.2584   41.4767   18.8354 H   0  0  0  0  0  0  0  0  0  0  0  0
   10.7079   40.5697   18.8354 H   0  0  0  0  0  0  0  0  0  0  0  0
   12.8271   39.9122   20.9114 H   0  0  0  0  0  0  0  0  0  0  0  0
   11.5536   38.8595   20.2110 H   0  0  0  0  0  0  0  0  0  0  0  0
   12.3231   36.5354   18.3763 H   0  0  0  0  0  0  0  0  0  0  0  0
   11.4433   36.3549   16.8207 H   0  0  0  0  0  0  0  0  0  0  0  0
   13.2034   36.7138   16.8207 H   0  0  0  0  0  0  0  0  0  0  0  0
   10.2982   39.6111   17.4810 H   0  0  0  0  0  0  0  0  0  0  0  0
   10.6540   38.9475   15.8270 H   0  0  0  0  0  0  0  0  0  0  0  0
    6.7830   34.6808   18.5518 H   0  0  0  0  0  0  0  0  0  0  0  0
    6.9797   36.0763   19.7310 H   0  0  0  0  0  0  0  0  0  0  0  0
    5.5455   35.6513   16.2270 H   0  0  0  0  0  0  0  0  0  0  0  0
    3.3092   36.5610   15.5866 H   0  0  0  0  0  0  0  0  0  0  0  0
    1.9131   37.7685   17.2766 H   0  0  0  0  0  0  0  0  0  0  0  0
    1.5871   38.6123   19.5165 H   0  0  0  0  0  0  0  0  0  0  0  0
    2.3950   38.9313   21.8658 H   0  0  0  0  0  0  0  0  0  0  0  0
    4.6303   38.0286   22.5523 H   0  0  0  0  0  0  0  0  0  0  0  0
    6.0606   36.8185   20.8968 H   0  0  0  0  0  0  0  0  0  0  0  0
    7.4315   33.7082   16.7486 H   0  0  0  0  0  0  0  0  0  0  0  0
    8.7647   32.8656   14.7982 H   0  0  0  0  0  0  0  0  0  0  0  0
   11.0676   36.5398   14.7906 H   0  0  0  0  0  0  0  0  0  0  0  0
  1  2  1  0
  2  3  1  0
  3  4  1  0
  4  5  2  0
  4  6  1  0
  6  7  1  0
  6  8  1  0
  8  9  1  0
  9 10  2  0
 10 11  1  0
 11 12  2  0
 11 13  1  0
 10 14  1  0
 14 15  1  0
 15 16  1  0
 16 17  2  0
 17 18  1  0
 18 19  2  0
 19 20  1  0
 20 21  2  0
 21 22  1  0
 22 23  2  0
 23 24  1  0
 24 25  2  0
 14 26  1  0
 26 27  2  0
 27 28  1  0
 28 29  2  0
 29 30  1  0
 29 31  1  0
 31 32  2  0
 32  9  1  0
 25 16  1  0
 32 26  1  0
 25 20  1  0
  1 33  1  0
  1 34  1  0
  1 35  1  0
  2 36  1  0
  2 37  1  0
  7 38  1  0
  7 39  1  0
  7 40  1  0
  8 41  1  0
  8 42  1  0
 15 43  1  0
 15 44  1  0
 17 45  1  0
 18 46  1  0
 19 47  1  0
 21 48  1  0
 22 49  1  0
 23 50  1  0
 24 51  1  0
 27 52  1  0
 28 53  1  0
 31 54  1  0
M  CHG  1  13  -1
M  END
>  <meeko>  (195) 
{"free_energy": -5.83, "intermolecular_energy": -8.22, "internal_energy": -1.78, "cluster_size": 136, "cluster_id": 17, "rank_in_cluster": 57}

$$$$

     RDKit          3D

 54 57  0  0  0  0  0  0  0  0999 V2000
   14.1640   45.9620    6.7390 C   0  0  0  0  0  0  0  0  0  0  0  0
   15.1940   45.0390    7.3940 C   0  0  0  0  0  0  0  0  0  0  0  0
   15.8250   44.2570    6.3930 O   0  0  0  0  0  0  0  0  0  0  0  0
   15.9070   42.9170    6.5320 C   0  0  0  0  0  0  0  0  0  0  0  0
   16.6680   42.3630    7.3270 O   0  0  0  0  0  0  0  0  0  0  0  0
   15.0140   42.2770    5.6630 N   0  0  0  0  0  0  0  0  0  0  0  0
   14.7360   42.7860    4.3160 C   0  0  0  0  0  0  0  0  0  0  0  0
   14.2840   41.0700    6.0740 C   0  0  0  0  0  0  0  0  0  0  0  0
   13.7470   41.1770    7.4820 C   0  0  0  0  0  0  0  0  0  0  0  0
   12.8710   42.1110    8.0070 C   0  0  0  0  0  0  0  0  0  0  0  0
   12.1780   43.2530    7.3340 C   0  0  0  0  0  0  0  0  0  0  0  0
   11.9330   43.1700    6.1110 O   0  0  0  0  0  0  0  0  0  0  0  0
   11.8680   44.2790    7.9780 O   0  0  0  0  0  1  0  0  0  0  0  0
   12.7050   41.8540    9.3850 N   0  0  0  0  0  0  0  0  0  0  0  0
   11.8680   42.5710   10.3500 C   0  0  0  0  0  0  0  0  0  0  0  0
   11.1250   41.6750   11.3510 C   0  0  0  0  0  0  0  0  0  0  0  0
   11.1830   41.9380   12.7420 C   0  0  0  0  0  0  0  0  0  0  0  0
   10.5040   41.1200   13.6620 C   0  0  0  0  0  0  0  0  0  0  0  0
    9.7560   40.0220   13.2070 C   0  0  0  0  0  0  0  0  0  0  0  0
    9.6850   39.7390   11.8300 C   0  0  0  0  0  0  0  0  0  0  0  0
    8.9300   38.6320   11.3910 C   0  0  0  0  0  0  0  0  0  0  0  0
    8.8450   38.3300   10.0200 C   0  0  0  0  0  0  0  0  0  0  0  0
    9.5160   39.1370    9.0840 C   0  0  0  0  0  0  0  0  0  0  0  0
   10.2730   40.2440    9.5160 C   0  0  0  0  0  0  0  0  0  0  0  0
   10.3680   40.5620   10.8930 C   0  0  0  0  0  0  0  0  0  0  0  0
   13.4770   40.7550    9.7420 C   0  0  0  0  0  0  0  0  0  0  0  0
   13.6750   40.1080   10.9790 C   0  0  0  0  0  0  0  0  0  0  0  0
   14.5210   38.9890   11.0570 C   0  0  0  0  0  0  0  0  0  0  0  0
   15.1630   38.5200    9.8980 C   0  0  0  0  0  0  0  0  0  0  0  0
   15.9770   37.4390    9.9660 F   0  0  0  0  0  0  0  0  0  0  0  0
   14.9630   39.1740    8.6670 C   0  0  0  0  0  0  0  0  0  0  0  0
   14.1230   40.3080    8.5580 C   0  0  0  0  0  0  0  0  0  0  0  0
   13.5866   46.4794    7.5194 H   0  0  0  0  0  0  0  0  0  0  0  0
   14.6819   46.7039    6.1134 H   0  0  0  0  0  0  0  0  0  0  0  0
   13.4831   45.3662    6.1134 H   0  0  0  0  0  0  0  0  0  0  0  0
   15.9487   45.6437    7.9182 H   0  0  0  0  0  0  0  0  0  0  0  0
   14.6912   44.3785    8.1157 H   0  0  0  0  0  0  0  0  0  0  0  0
   14.2099   43.7492    4.3894 H   0  0  0  0  0  0  0  0  0  0  0  0
   15.6830   42.9258    3.7742 H   0  0  0  0  0  0  0  0  0  0  0  0
   14.1065   42.0648    3.7742 H   0  0  0  0  0  0  0  0  0  0  0  0
   13.4410   40.9144    5.3847 H   0  0  0  0  0  0  0  0  0  0  0  0
   14.9874   40.2248    6.0452 H   0  0  0  0  0  0  0  0  0  0  0  0
   12.5129   43.2572   10.9185 H   0  0  0  0  0  0  0  0  0  0  0  0
   11.0937   43.0874    9.7637 H   0  0  0  0  0  0  0  0  0  0  0  0
   11.7679   42.7949   13.1075 H   0  0  0  0  0  0  0  0  0  0  0  0
   10.5587   41.3401   14.7384 H   0  0  0  0  0  0  0  0  0  0  0  0
    9.2250   39.3824   13.9275 H   0  0  0  0  0  0  0  0  0  0  0  0
    8.4052   38.0018   12.1241 H   0  0  0  0  0  0  0  0  0  0  0  0
    8.2556   37.4654    9.6810 H   0  0  0  0  0  0  0  0  0  0  0  0
    9.4496   38.9032    8.0112 H   0  0  0  0  0  0  0  0  0  0  0  0
   10.7958   40.8679    8.7761 H   0  0  0  0  0  0  0  0  0  0  0  0
   13.1678   40.4789   11.8819 H   0  0  0  0  0  0  0  0  0  0  0  0
   14.6801   38.4825   12.0204 H   0  0  0  0  0  0  0  0  0  0  0  0
   15.4718   38.7945    7.7686 H   0  0  0  0  0  0  0  0  0  0  0  0
  1  2  1  0
  2  3  1  0
  3  4  1  0
  4  5  2  0
  4  6  1  0
  6  7  1  0
  6  8  1  0
  8  9  1  0
  9 10  2  0
 10 11  1  0
 11 12  2  0
 11 13  1  0
 10 14  1  0
 14 15  1  0
 15 16  1  0
 16 17  2  0
 17 18  1  0
 18 19  2  0
 19 20  1  0
 20 21  2  0
 21 22  1  0
 22 23  2  0
 23 24  1  0
 24 25  2  0
 14 26  1  0
 26 27  2  0
 27 28  1  0
 28 29  2  0
 29 30  1  0
 29 31  1  0
 31 32  2  0
 32  9  1  0
 25 16  1  0
 32 26  1  0
 25 20  1  0
  1 33  1  0
  1 34  1  0
  1 35  1  0
  2 36  1  0
  2 37  1  0
  7 38  1  0
  7 39  1  0
  7 40  1  0
  8 41  1  0
  8 42  1  0
 15 43  1  0
 15 44  1  0
 17 45  1  0
 18 46  1  0
 19 47  1  0
 21 48  1  0
 22 49  1  0
 23 50  1  0
 24 51  1  0
 27 52  1  0
 28 53  1  0
 31 54  1  0
M  CHG  1  13  -1
M  END
>  <meeko>  (196) 
{"free_energy": -3.64, "intermolecular_energy": -6.02, "internal_energy": -2.41, "cluster_size": 30, "cluster_id": 35, "rank_in_cluster": 30}

$$$$

     RDKit          3D

 54 57  0  0  0  0  0  0  0  0999 V2000
   14.8850   36.7250   10.6790 C   0  0  0  0  0  0  0  0  0  0  0  0
   13.8540   37.7110   10.1250 C   0  0  0  0  0  0  0  0  0  0  0  0
   12.6060   37.4870   10.7610 O   0  0  0  0  0  0  0  0  0  0  0  0
   11.4640   37.9090   10.1760 C   0  0  0  0  0  0  0  0  0  0  0  0
   11.4340   38.7470    9.2730 O   0  0  0  0  0  0  0  0  0  0  0  0
   10.3560   37.2600   10.7370 N   0  0  0  0  0  0  0  0  0  0  0  0
    8.9810   37.5720   10.3300 C   0  0  0  0  0  0  0  0  0  0  0  0
   10.5180   36.2480   11.7890 C   0  0  0  0  0  0  0  0  0  0  0  0
   10.2140   36.7960   13.1630 C   0  0  0  0  0  0  0  0  0  0  0  0
    9.7020   36.1360   14.2660 C   0  0  0  0  0  0  0  0  0  0  0  0
    9.3360   34.6950   14.4300 C   0  0  0  0  0  0  0  0  0  0  0  0
   10.1830   33.9120   14.9130 O   0  0  0  0  0  0  0  0  0  0  0  0
    8.2130   34.2780   14.0730 O   0  0  0  0  0  1  0  0  0  0  0  0
    9.5240   37.0680   15.3110 N   0  0  0  0  0  0  0  0  0  0  0  0
    9.0200   36.8300   16.6660 C   0  0  0  0  0  0  0  0  0  0  0  0
    9.9890   37.2150   17.7920 C   0  0  0  0  0  0  0  0  0  0  0  0
    9.5550   38.0070   18.8840 C   0  0  0  0  0  0  0  0  0  0  0  0
   10.4390   38.3620   19.9180 C   0  0  0  0  0  0  0  0  0  0  0  0
   11.7750   37.9340   19.8770 C   0  0  0  0  0  0  0  0  0  0  0  0
   12.2310   37.1480   18.8010 C   0  0  0  0  0  0  0  0  0  0  0  0
   13.5770   36.7260   18.7760 C   0  0  0  0  0  0  0  0  0  0  0  0
   14.0540   35.9410   17.7120 C   0  0  0  0  0  0  0  0  0  0  0  0
   13.1850   35.5740   16.6690 C   0  0  0  0  0  0  0  0  0  0  0  0
   11.8400   35.9920   16.6880 C   0  0  0  0  0  0  0  0  0  0  0  0
   11.3430   36.7840   17.7530 C   0  0  0  0  0  0  0  0  0  0  0  0
    9.9230   38.3250   14.8760 C   0  0  0  0  0  0  0  0  0  0  0  0
    9.9340   39.5810   15.5170 C   0  0  0  0  0  0  0  0  0  0  0  0
   10.4080   40.7130   14.8320 C   0  0  0  0  0  0  0  0  0  0  0  0
   10.8700   40.5850   13.5110 C   0  0  0  0  0  0  0  0  0  0  0  0
   11.3320   41.6710   12.8470 F   0  0  0  0  0  0  0  0  0  0  0  0
   10.8520   39.3280   12.8760 C   0  0  0  0  0  0  0  0  0  0  0  0
   10.3740   38.1710   13.5380 C   0  0  0  0  0  0  0  0  0  0  0  0
   14.8607   36.7482   11.7785 H   0  0  0  0  0  0  0  0  0  0  0  0
   14.6469   35.7099   10.3284 H   0  0  0  0  0  0  0  0  0  0  0  0
   15.8884   37.0081   10.3284 H   0  0  0  0  0  0  0  0  0  0  0  0
   14.1873   38.7408   10.3211 H   0  0  0  0  0  0  0  0  0  0  0  0
   13.7477   37.5640    9.0401 H   0  0  0  0  0  0  0  0  0  0  0  0
    8.3570   37.7136   11.2247 H   0  0  0  0  0  0  0  0  0  0  0  0
    8.9764   38.4940    9.7301 H   0  0  0  0  0  0  0  0  0  0  0  0
    8.5790   36.7423    9.7301 H   0  0  0  0  0  0  0  0  0  0  0  0
    9.8347   35.4109   11.5829 H   0  0  0  0  0  0  0  0  0  0  0  0
   11.5681   35.9204   11.7821 H   0  0  0  0  0  0  0  0  0  0  0  0
    8.0969   37.4141   16.7948 H   0  0  0  0  0  0  0  0  0  0  0  0
    8.8635   35.7445   16.7510 H   0  0  0  0  0  0  0  0  0  0  0  0
    8.5104   38.3493   18.9233 H   0  0  0  0  0  0  0  0  0  0  0  0
   10.0835   38.9752   20.7592 H   0  0  0  0  0  0  0  0  0  0  0  0
   12.4665   38.2126   20.6859 H   0  0  0  0  0  0  0  0  0  0  0  0
   14.2560   37.0125   19.5926 H   0  0  0  0  0  0  0  0  0  0  0  0
   15.1043   35.6146   17.6952 H   0  0  0  0  0  0  0  0  0  0  0  0
   13.5566   34.9589   15.8362 H   0  0  0  0  0  0  0  0  0  0  0  0
   11.1681   35.7005   15.8673 H   0  0  0  0  0  0  0  0  0  0  0  0
    9.5722   39.6746   16.5516 H   0  0  0  0  0  0  0  0  0  0  0  0
   10.4173   41.6949   15.3277 H   0  0  0  0  0  0  0  0  0  0  0  0
   11.2177   39.2430   11.8420 H   0  0  0  0  0  0  0  0  0  0  0  0
  1  2  1  0
  2  3  1  0
  3  4  1  0
  4  5  2  0
  4  6  1  0
  6  7  1  0
  6  8  1  0
  8  9  1  0
  9 10  2  0
 10 11  1  0
 11 12  2  0
 11 13  1  0
 10 14  1  0
 14 15  1  0
 15 16  1  0
 16 17  2  0
 17 18  1  0
 18 19  2  0
 19 20  1  0
 20 21  2  0
 21 22  1  0
 22 23  2  0
 23 24  1  0
 24 25  2  0
 14 26  1  0
 26 27  2  0
 27 28  1  0
 28 29  2  0
 29 30  1  0
 29 31  1  0
 31 32  2  0
 32  9  1  0
 25 16  1  0
 32 26  1  0
 25 20  1  0
  1 33  1  0
  1 34  1  0
  1 35  1  0
  2 36  1  0
  2 37  1  0
  7 38  1  0
  7 39  1  0
  7 40  1  0
  8 41  1  0
  8 42  1  0
 15 43  1  0
 15 44  1  0
 17 45  1  0
 18 46  1  0
 19 47  1  0
 21 48  1  0
 22 49  1  0
 23 50  1  0
 24 51  1  0
 27 52  1  0
 28 53  1  0
 31 54  1  0
M  CHG  1  13  -1
M  END
>  <meeko>  (197) 
{"free_energy": -4.86, "intermolecular_energy": -7.24, "internal_energy": -2.06, "cluster_size": 10, "cluster_id": 93, "rank_in_cluster": 4}

$$$$

     RDKit          3D

 54 57  0  0  0  0  0  0  0  0999 V2000
   12.7470   39.5450    8.8050 C   0  0  0  0  0  0  0  0  0  0  0  0
   11.4830   39.4720    9.6670 C   0  0  0  0  0  0  0  0  0  0  0  0
   10.6000   38.5070    9.1190 O   0  0  0  0  0  0  0  0  0  0  0  0
    9.4810   38.1570    9.7890 C   0  0  0  0  0  0  0  0  0  0  0  0
    8.4190   38.7780    9.7060 O   0  0  0  0  0  0  0  0  0  0  0  0
    9.7080   37.0120   10.5630 N   0  0  0  0  0  0  0  0  0  0  0  0
   10.8200   36.0940   10.2890 C   0  0  0  0  0  0  0  0  0  0  0  0
    8.8200   36.6560   11.6770 C   0  0  0  0  0  0  0  0  0  0  0  0
    9.4110   37.0190   13.0190 C   0  0  0  0  0  0  0  0  0  0  0  0
    9.5780   36.2220   14.1370 C   0  0  0  0  0  0  0  0  0  0  0  0
    9.2580   34.7730   14.3320 C   0  0  0  0  0  0  0  0  0  0  0  0
    8.1470   34.3470   13.9480 O   0  0  0  0  0  0  0  0  0  0  0  0
   10.0780   34.0090   14.8860 O   0  0  0  0  0  1  0  0  0  0  0  0
   10.1140   37.0070   15.1800 N   0  0  0  0  0  0  0  0  0  0  0  0
   10.4670   36.5960   16.5410 C   0  0  0  0  0  0  0  0  0  0  0  0
    9.5810   37.1880   17.6450 C   0  0  0  0  0  0  0  0  0  0  0  0
   10.0730   38.2000   18.5060 C   0  0  0  0  0  0  0  0  0  0  0  0
    9.2640   38.7460   19.5180 C   0  0  0  0  0  0  0  0  0  0  0  0
    7.9480   38.2880   19.6890 C   0  0  0  0  0  0  0  0  0  0  0  0
    7.4370   37.2820   18.8480 C   0  0  0  0  0  0  0  0  0  0  0  0
    6.1130   36.8330   19.0340 C   0  0  0  0  0  0  0  0  0  0  0  0
    5.5810   35.8290   18.2060 C   0  0  0  0  0  0  0  0  0  0  0  0
    6.3740   35.2710   17.1870 C   0  0  0  0  0  0  0  0  0  0  0  0
    7.6970   35.7140   16.9960 C   0  0  0  0  0  0  0  0  0  0  0  0
    8.2480   36.7250   17.8210 C   0  0  0  0  0  0  0  0  0  0  0  0
   10.2900   38.3090   14.7280 C   0  0  0  0  0  0  0  0  0  0  0  0
   10.7720   39.4690   15.3680 C   0  0  0  0  0  0  0  0  0  0  0  0
   10.8550   40.6780   14.6590 C   0  0  0  0  0  0  0  0  0  0  0  0
   10.4570   40.7240   13.3110 C   0  0  0  0  0  0  0  0  0  0  0  0
   10.5380   41.8860   12.6200 F   0  0  0  0  0  0  0  0  0  0  0  0
    9.9730   39.5620   12.6790 C   0  0  0  0  0  0  0  0  0  0  0  0
    9.8710   38.3310   13.3710 C   0  0  0  0  0  0  0  0  0  0  0  0
   13.6323   39.5961    9.4559 H   0  0  0  0  0  0  0  0  0  0  0  0
   12.8100   38.6490    8.1700 H   0  0  0  0  0  0  0  0  0  0  0  0
   12.7065   40.4423    8.1700 H   0  0  0  0  0  0  0  0  0  0  0  0
   11.7536   39.1824   10.6931 H   0  0  0  0  0  0  0  0  0  0  0  0
   10.9906   40.4555    9.6850 H   0  0  0  0  0  0  0  0  0  0  0  0
   11.2471   35.7414   11.2394 H   0  0  0  0  0  0  0  0  0  0  0  0
   10.4514   35.2337    9.7111 H   0  0  0  0  0  0  0  0  0  0  0  0
   11.5949   36.6189    9.7111 H   0  0  0  0  0  0  0  0  0  0  0  0
    7.8664   37.1904   11.5541 H   0  0  0  0  0  0  0  0  0  0  0  0
    8.6747   35.5658   11.6568 H   0  0  0  0  0  0  0  0  0  0  0  0
   10.3952   35.4997   16.5963 H   0  0  0  0  0  0  0  0  0  0  0  0
   11.4830   36.9756   16.7241 H   0  0  0  0  0  0  0  0  0  0  0  0
   11.1035   38.5640   18.3808 H   0  0  0  0  0  0  0  0  0  0  0  0
    9.6623   39.5323   20.1760 H   0  0  0  0  0  0  0  0  0  0  0  0
    7.3158   38.7158   20.4810 H   0  0  0  0  0  0  0  0  0  0  0  0
    5.4936   37.2705   19.8308 H   0  0  0  0  0  0  0  0  0  0  0  0
    4.5481   35.4810   18.3545 H   0  0  0  0  0  0  0  0  0  0  0  0
    5.9594   34.4861   16.5373 H   0  0  0  0  0  0  0  0  0  0  0  0
    8.3093   35.2700   16.1973 H   0  0  0  0  0  0  0  0  0  0  0  0
   11.0829   39.4269   16.4223 H   0  0  0  0  0  0  0  0  0  0  0  0
   11.2297   41.5852   15.1557 H   0  0  0  0  0  0  0  0  0  0  0  0
    9.6672   39.6121   11.6235 H   0  0  0  0  0  0  0  0  0  0  0  0
  1  2  1  0
  2  3  1  0
  3  4  1  0
  4  5  2  0
  4  6  1  0
  6  7  1  0
  6  8  1  0
  8  9  1  0
  9 10  2  0
 10 11  1  0
 11 12  2  0
 11 13  1  0
 10 14  1  0
 14 15  1  0
 15 16  1  0
 16 17  2  0
 17 18  1  0
 18 19  2  0
 19 20  1  0
 20 21  2  0
 21 22  1  0
 22 23  2  0
 23 24  1  0
 24 25  2  0
 14 26  1  0
 26 27  2  0
 27 28  1  0
 28 29  2  0
 29 30  1  0
 29 31  1  0
 31 32  2  0
 32  9  1  0
 25 16  1  0
 32 26  1  0
 25 20  1  0
  1 33  1  0
  1 34  1  0
  1 35  1  0
  2 36  1  0
  2 37  1  0
  7 38  1  0
  7 39  1  0
  7 40  1  0
  8 41  1  0
  8 42  1  0
 15 43  1  0
 15 44  1  0
 17 45  1  0
 18 46  1  0
 19 47  1  0
 21 48  1  0
 22 49  1  0
 23 50  1  0
 24 51  1  0
 27 52  1  0
 28 53  1  0
 31 54  1  0
M  CHG  1  13  -1
M  END
>  <meeko>  (198) 
{"free_energy": -6.18, "intermolecular_energy": -8.57, "internal_energy": -2.12, "cluster_size": 136, "cluster_id": 23, "rank_in_cluster": 30}

$$$$

     RDKit          3D

 54 57  0  0  0  0  0  0  0  0999 V2000
    7.1160   35.7660    6.4770 C   0  0  0  0  0  0  0  0  0  0  0  0
    7.7620   35.1490    7.7200 C   0  0  0  0  0  0  0  0  0  0  0  0
    8.6080   36.1090    8.3330 O   0  0  0  0  0  0  0  0  0  0  0  0
    8.2180   36.7270    9.4680 C   0  0  0  0  0  0  0  0  0  0  0  0
    8.0370   36.1350   10.5340 O   0  0  0  0  0  0  0  0  0  0  0  0
    8.0620   38.1020    9.2510 N   0  0  0  0  0  0  0  0  0  0  0  0
    8.1790   38.6990    7.9160 C   0  0  0  0  0  0  0  0  0  0  0  0
    7.8000   39.0240   10.3630 C   0  0  0  0  0  0  0  0  0  0  0  0
    8.9640   39.9510   10.6240 C   0  0  0  0  0  0  0  0  0  0  0  0
   10.3030   39.7650   10.3310 C   0  0  0  0  0  0  0  0  0  0  0  0
   10.9790   38.6190    9.6450 C   0  0  0  0  0  0  0  0  0  0  0  0
   11.6720   38.8500    8.6310 O   0  0  0  0  0  0  0  0  0  0  0  0
   10.8370   37.4510   10.0690 O   0  0  0  0  0  1  0  0  0  0  0  0
   11.0330   40.8710   10.8160 N   0  0  0  0  0  0  0  0  0  0  0  0
   12.4750   41.1190   10.7290 C   0  0  0  0  0  0  0  0  0  0  0  0
   12.8870   42.1640    9.6830 C   0  0  0  0  0  0  0  0  0  0  0  0
   12.1390   42.3330    8.4910 C   0  0  0  0  0  0  0  0  0  0  0  0
   12.5120   43.2890    7.5310 C   0  0  0  0  0  0  0  0  0  0  0  0
   13.6430   44.0930    7.7440 C   0  0  0  0  0  0  0  0  0  0  0  0
   14.4040   43.9440    8.9190 C   0  0  0  0  0  0  0  0  0  0  0  0
   15.5370   44.7600    9.1160 C   0  0  0  0  0  0  0  0  0  0  0  0
   16.3120   44.6280   10.2820 C   0  0  0  0  0  0  0  0  0  0  0  0
   15.9540   43.6780   11.2550 C   0  0  0  0  0  0  0  0  0  0  0  0
   14.8240   42.8600   11.0640 C   0  0  0  0  0  0  0  0  0  0  0  0
   14.0320   42.9800    9.8960 C   0  0  0  0  0  0  0  0  0  0  0  0
   10.1600   41.7650   11.4210 C   0  0  0  0  0  0  0  0  0  0  0  0
   10.3780   43.0010   12.0660 C   0  0  0  0  0  0  0  0  0  0  0  0
    9.2900   43.7180   12.5920 C   0  0  0  0  0  0  0  0  0  0  0  0
    7.9900   43.1990   12.4710 C   0  0  0  0  0  0  0  0  0  0  0  0
    6.9370   43.8870   12.9720 F   0  0  0  0  0  0  0  0  0  0  0  0
    7.7810   41.9630   11.8290 C   0  0  0  0  0  0  0  0  0  0  0  0
    8.8570   41.2140   11.2940 C   0  0  0  0  0  0  0  0  0  0  0  0
    6.3522   36.4955    6.7845 H   0  0  0  0  0  0  0  0  0  0  0  0
    7.8861   36.2725    5.8766 H   0  0  0  0  0  0  0  0  0  0  0  0
    6.6454   34.9735    5.8766 H   0  0  0  0  0  0  0  0  0  0  0  0
    6.9780   34.8439    8.4288 H   0  0  0  0  0  0  0  0  0  0  0  0
    8.3532   34.2680    7.4298 H   0  0  0  0  0  0  0  0  0  0  0  0
    8.3897   39.7743    8.0124 H   0  0  0  0  0  0  0  0  0  0  0  0
    8.9989   38.2124    7.3673 H   0  0  0  0  0  0  0  0  0  0  0  0
    7.2361   38.5579    7.3673 H   0  0  0  0  0  0  0  0  0  0  0  0
    6.9136   39.6285   10.1203 H   0  0  0  0  0  0  0  0  0  0  0  0
    7.6389   38.4218   11.2693 H   0  0  0  0  0  0  0  0  0  0  0  0
   12.8226   41.4650   11.7136 H   0  0  0  0  0  0  0  0  0  0  0  0
   12.9338   40.1697   10.4154 H   0  0  0  0  0  0  0  0  0  0  0  0
   11.2526   41.7060    8.3146 H   0  0  0  0  0  0  0  0  0  0  0  0
   11.9179   43.4074    6.6128 H   0  0  0  0  0  0  0  0  0  0  0  0
   13.9350   44.8405    6.9917 H   0  0  0  0  0  0  0  0  0  0  0  0
   15.8158   45.5030    8.3543 H   0  0  0  0  0  0  0  0  0  0  0  0
   17.1955   45.2659   10.4324 H   0  0  0  0  0  0  0  0  0  0  0  0
   16.5585   43.5736   12.1680 H   0  0  0  0  0  0  0  0  0  0  0  0
   14.5532   42.1192   11.8308 H   0  0  0  0  0  0  0  0  0  0  0  0
   11.3980   43.4026   12.1569 H   0  0  0  0  0  0  0  0  0  0  0  0
    9.4554   44.6815   13.0963 H   0  0  0  0  0  0  0  0  0  0  0  0
    6.7573   41.5701   11.7411 H   0  0  0  0  0  0  0  0  0  0  0  0
  1  2  1  0
  2  3  1  0
  3  4  1  0
  4  5  2  0
  4  6  1  0
  6  7  1  0
  6  8  1  0
  8  9  1  0
  9 10  2  0
 10 11  1  0
 11 12  2  0
 11 13  1  0
 10 14  1  0
 14 15  1  0
 15 16  1  0
 16 17  2  0
 17 18  1  0
 18 19  2  0
 19 20  1  0
 20 21  2  0
 21 22  1  0
 22 23  2  0
 23 24  1  0
 24 25  2  0
 14 26  1  0
 26 27  2  0
 27 28  1  0
 28 29  2  0
 29 30  1  0
 29 31  1  0
 31 32  2  0
 32  9  1  0
 25 16  1  0
 32 26  1  0
 25 20  1  0
  1 33  1  0
  1 34  1  0
  1 35  1  0
  2 36  1  0
  2 37  1  0
  7 38  1  0
  7 39  1  0
  7 40  1  0
  8 41  1  0
  8 42  1  0
 15 43  1  0
 15 44  1  0
 17 45  1  0
 18 46  1  0
 19 47  1  0
 21 48  1  0
 22 49  1  0
 23 50  1  0
 24 51  1  0
 27 52  1  0
 28 53  1  0
 31 54  1  0
M  CHG  1  13  -1
M  END
>  <meeko>  (199) 
{"free_energy": -5.12, "intermolecular_energy": -7.5, "internal_energy": -1.55, "cluster_size": 87, "cluster_id": 14, "rank_in_cluster": 50}

$$$$

     RDKit          3D

 54 57  0  0  0  0  0  0  0  0999 V2000
   15.0360   36.1510    9.8170 C   0  0  0  0  0  0  0  0  0  0  0  0
   15.9810   35.8830   10.9910 C   0  0  0  0  0  0  0  0  0  0  0  0
   16.7480   37.0480   11.2490 O   0  0  0  0  0  0  0  0  0  0  0  0
   16.6060   37.7050   12.4200 C   0  0  0  0  0  0  0  0  0  0  0  0
   16.8880   37.2110   13.5130 O   0  0  0  0  0  0  0  0  0  0  0  0
   16.1120   38.9980   12.2020 N   0  0  0  0  0  0  0  0  0  0  0  0
   16.4530   40.1220   13.0800 C   0  0  0  0  0  0  0  0  0  0  0  0
   15.1960   39.2850   11.0900 C   0  0  0  0  0  0  0  0  0  0  0  0
   13.7460   39.1390   11.4910 C   0  0  0  0  0  0  0  0  0  0  0  0
   12.6190   39.1610   10.6880 C   0  0  0  0  0  0  0  0  0  0  0  0
   12.5090   39.2990    9.2030 C   0  0  0  0  0  0  0  0  0  0  0  0
   13.4170   39.8970    8.5860 O   0  0  0  0  0  0  0  0  0  0  0  0
   11.5170   38.8420    8.5930 O   0  0  0  0  0  1  0  0  0  0  0  0
   11.4760   39.0510   11.5080 N   0  0  0  0  0  0  0  0  0  0  0  0
   10.0670   39.0190   11.1060 C   0  0  0  0  0  0  0  0  0  0  0  0
    9.6390   37.7510   10.3550 C   0  0  0  0  0  0  0  0  0  0  0  0
   10.0860   36.4730   10.7740 C   0  0  0  0  0  0  0  0  0  0  0  0
    9.6970   35.3090   10.0880 C   0  0  0  0  0  0  0  0  0  0  0  0
    8.8540   35.4020    8.9690 C   0  0  0  0  0  0  0  0  0  0  0  0
    8.3980   36.6600    8.5320 C   0  0  0  0  0  0  0  0  0  0  0  0
    7.5520   36.7340    7.4060 C   0  0  0  0  0  0  0  0  0  0  0  0
    7.0840   37.9800    6.9520 C   0  0  0  0  0  0  0  0  0  0  0  0
    7.4620   39.1560    7.6240 C   0  0  0  0  0  0  0  0  0  0  0  0
    8.3060   39.0890    8.7490 C   0  0  0  0  0  0  0  0  0  0  0  0
    8.7860   37.8420    9.2200 C   0  0  0  0  0  0  0  0  0  0  0  0
   11.8720   38.9580   12.8360 C   0  0  0  0  0  0  0  0  0  0  0  0
   11.1320   38.8470   14.0320 C   0  0  0  0  0  0  0  0  0  0  0  0
   11.8020   38.7600   15.2640 C   0  0  0  0  0  0  0  0  0  0  0  0
   13.2070   38.7830   15.2970 C   0  0  0  0  0  0  0  0  0  0  0  0
   13.8580   38.6960   16.4810 F   0  0  0  0  0  0  0  0  0  0  0  0
   13.9380   38.8980   14.0990 C   0  0  0  0  0  0  0  0  0  0  0  0
   13.2920   38.9940   12.8430 C   0  0  0  0  0  0  0  0  0  0  0  0
   14.0444   36.4322   10.2013 H   0  0  0  0  0  0  0  0  0  0  0  0
   15.4373   36.9708    9.2030 H   0  0  0  0  0  0  0  0  0  0  0  0
   14.9472   35.2426    9.2030 H   0  0  0  0  0  0  0  0  0  0  0  0
   15.3935   35.6242   11.8843 H   0  0  0  0  0  0  0  0  0  0  0  0
   16.6515   35.0473   10.7418 H   0  0  0  0  0  0  0  0  0  0  0  0
   16.3580   39.8089   14.1302 H   0  0  0  0  0  0  0  0  0  0  0  0
   17.4879   40.4394   12.8842 H   0  0  0  0  0  0  0  0  0  0  0  0
   15.7689   40.9609   12.8842 H   0  0  0  0  0  0  0  0  0  0  0  0
   15.3666   40.3165   10.7480 H   0  0  0  0  0  0  0  0  0  0  0  0
   15.3993   38.5584   10.2896 H   0  0  0  0  0  0  0  0  0  0  0  0
    9.4506   39.1035   12.0132 H   0  0  0  0  0  0  0  0  0  0  0  0
    9.9266   39.8553   10.4053 H   0  0  0  0  0  0  0  0  0  0  0  0
   10.7473   36.3905   11.6492 H   0  0  0  0  0  0  0  0  0  0  0  0
   10.0531   34.3253   10.4280 H   0  0  0  0  0  0  0  0  0  0  0  0
    8.5496   34.4908    8.4332 H   0  0  0  0  0  0  0  0  0  0  0  0
    7.2571   35.8135    6.8809 H   0  0  0  0  0  0  0  0  0  0  0  0
    6.4241   38.0346    6.0736 H   0  0  0  0  0  0  0  0  0  0  0  0
    7.0972   40.1313    7.2696 H   0  0  0  0  0  0  0  0  0  0  0  0
    8.5958   40.0147    9.2677 H   0  0  0  0  0  0  0  0  0  0  0  0
   10.0326   38.8286   14.0001 H   0  0  0  0  0  0  0  0  0  0  0  0
   11.2291   38.6742   16.1991 H   0  0  0  0  0  0  0  0  0  0  0  0
   15.0371   38.9136   14.1401 H   0  0  0  0  0  0  0  0  0  0  0  0
  1  2  1  0
  2  3  1  0
  3  4  1  0
  4  5  2  0
  4  6  1  0
  6  7  1  0
  6  8  1  0
  8  9  1  0
  9 10  2  0
 10 11  1  0
 11 12  2  0
 11 13  1  0
 10 14  1  0
 14 15  1  0
 15 16  1  0
 16 17  2  0
 17 18  1  0
 18 19  2  0
 19 20  1  0
 20 21  2  0
 21 22  1  0
 22 23  2  0
 23 24  1  0
 24 25  2  0
 14 26  1  0
 26 27  2  0
 27 28  1  0
 28 29  2  0
 29 30  1  0
 29 31  1  0
 31 32  2  0
 32  9  1  0
 25 16  1  0
 32 26  1  0
 25 20  1  0
  1 33  1  0
  1 34  1  0
  1 35  1  0
  2 36  1  0
  2 37  1  0
  7 38  1  0
  7 39  1  0
  7 40  1  0
  8 41  1  0
  8 42  1  0
 15 43  1  0
 15 44  1  0
 17 45  1  0
 18 46  1  0
 19 47  1  0
 21 48  1  0
 22 49  1  0
 23 50  1  0
 24 51  1  0
 27 52  1  0
 28 53  1  0
 31 54  1  0
M  CHG  1  13  -1
M  END
>  <meeko>  (200) 
{"free_energy": -6.41, "intermolecular_energy": -8.8, "internal_energy": -1.8, "cluster_size": 292, "cluster_id": 10, "rank_in_cluster": 87}

$$$$

     RDKit          3D

 54 57  0  0  0  0  0  0  0  0999 V2000
   15.0860   39.6980    8.8520 C   0  0  0  0  0  0  0  0  0  0  0  0
   15.3440   39.0000   10.1900 C   0  0  0  0  0  0  0  0  0  0  0  0
   15.3080   39.9610   11.2330 O   0  0  0  0  0  0  0  0  0  0  0  0
   14.2110   40.7290   11.4070 C   0  0  0  0  0  0  0  0  0  0  0  0
   14.0200   41.7850   10.8020 O   0  0  0  0  0  0  0  0  0  0  0  0
   13.3500   40.1500   12.3480 N   0  0  0  0  0  0  0  0  0  0  0  0
   13.4530   38.7390   12.7350 C   0  0  0  0  0  0  0  0  0  0  0  0
   12.2750   40.9280   12.9770 C   0  0  0  0  0  0  0  0  0  0  0  0
   10.9960   40.8910   12.1740 C   0  0  0  0  0  0  0  0  0  0  0  0
   10.7020   40.1420   11.0480 C   0  0  0  0  0  0  0  0  0  0  0  0
   11.5410   39.1370   10.3250 C   0  0  0  0  0  0  0  0  0  0  0  0
   11.6620   37.9930   10.8140 O   0  0  0  0  0  0  0  0  0  0  0  0
   12.1240   39.4410    9.2620 O   0  0  0  0  0  1  0  0  0  0  0  0
    9.4070   40.4830   10.6020 N   0  0  0  0  0  0  0  0  0  0  0  0
    8.6670   39.9450    9.4570 C   0  0  0  0  0  0  0  0  0  0  0  0
    8.4170   38.4320    9.5040 C   0  0  0  0  0  0  0  0  0  0  0  0
    8.7730   37.6720   10.6470 C   0  0  0  0  0  0  0  0  0  0  0  0
    8.5450   36.2860   10.6940 C   0  0  0  0  0  0  0  0  0  0  0  0
    7.9580   35.6330    9.5990 C   0  0  0  0  0  0  0  0  0  0  0  0
    7.5970   36.3650    8.4520 C   0  0  0  0  0  0  0  0  0  0  0  0
    7.0090   35.6920    7.3610 C   0  0  0  0  0  0  0  0  0  0  0  0
    6.6410   36.4030    6.2050 C   0  0  0  0  0  0  0  0  0  0  0  0
    6.8600   37.7900    6.1380 C   0  0  0  0  0  0  0  0  0  0  0  0
    7.4470   38.4680    7.2230 C   0  0  0  0  0  0  0  0  0  0  0  0
    7.8240   37.7670    8.3960 C   0  0  0  0  0  0  0  0  0  0  0  0
    8.8720   41.4500   11.4430 C   0  0  0  0  0  0  0  0  0  0  0  0
    7.6360   42.1280   11.4310 C   0  0  0  0  0  0  0  0  0  0  0  0
    7.3440   43.0720   12.4290 C   0  0  0  0  0  0  0  0  0  0  0  0
    8.2880   43.3350   13.4360 C   0  0  0  0  0  0  0  0  0  0  0  0
    8.0110   44.2420   14.4030 F   0  0  0  0  0  0  0  0  0  0  0  0
    9.5220   42.6570   13.4400 C   0  0  0  0  0  0  0  0  0  0  0  0
    9.8480   41.7050   12.4440 C   0  0  0  0  0  0  0  0  0  0  0  0
   14.7100   40.7153    9.0356 H   0  0  0  0  0  0  0  0  0  0  0  0
   16.0238   39.7515    8.2795 H   0  0  0  0  0  0  0  0  0  0  0  0
   14.3389   39.1287    8.2795 H   0  0  0  0  0  0  0  0  0  0  0  0
   14.5684   38.2396   10.3637 H   0  0  0  0  0  0  0  0  0  0  0  0
   16.3310   38.5148   10.1690 H   0  0  0  0  0  0  0  0  0  0  0  0
   13.4588   38.6592   13.8321 H   0  0  0  0  0  0  0  0  0  0  0  0
   12.5929   38.1844   12.3316 H   0  0  0  0  0  0  0  0  0  0  0  0
   14.3845   38.3152   12.3316 H   0  0  0  0  0  0  0  0  0  0  0  0
   12.0772   40.5142   13.9768 H   0  0  0  0  0  0  0  0  0  0  0  0
   12.6065   41.9753   13.0344 H   0  0  0  0  0  0  0  0  0  0  0  0
    7.6916   40.4515    9.4118 H   0  0  0  0  0  0  0  0  0  0  0  0
    9.2931   40.1273    8.5712 H   0  0  0  0  0  0  0  0  0  0  0  0
    9.2345   38.1747   11.5097 H   0  0  0  0  0  0  0  0  0  0  0  0
    8.8268   35.7126   11.5895 H   0  0  0  0  0  0  0  0  0  0  0  0
    7.7799   34.5482    9.6371 H   0  0  0  0  0  0  0  0  0  0  0  0
    6.8376   34.6068    7.4146 H   0  0  0  0  0  0  0  0  0  0  0  0
    6.1830   35.8753    5.3554 H   0  0  0  0  0  0  0  0  0  0  0  0
    6.5717   38.3474    5.2346 H   0  0  0  0  0  0  0  0  0  0  0  0
    7.6149   39.5533    7.1600 H   0  0  0  0  0  0  0  0  0  0  0  0
    6.9007   41.9177   10.6404 H   0  0  0  0  0  0  0  0  0  0  0  0
    6.3807   43.6030   12.4224 H   0  0  0  0  0  0  0  0  0  0  0  0
   10.2502   42.8721   14.2359 H   0  0  0  0  0  0  0  0  0  0  0  0
  1  2  1  0
  2  3  1  0
  3  4  1  0
  4  5  2  0
  4  6  1  0
  6  7  1  0
  6  8  1  0
  8  9  1  0
  9 10  2  0
 10 11  1  0
 11 12  2  0
 11 13  1  0
 10 14  1  0
 14 15  1  0
 15 16  1  0
 16 17  2  0
 17 18  1  0
 18 19  2  0
 19 20  1  0
 20 21  2  0
 21 22  1  0
 22 23  2  0
 23 24  1  0
 24 25  2  0
 14 26  1  0
 26 27  2  0
 27 28  1  0
 28 29  2  0
 29 30  1  0
 29 31  1  0
 31 32  2  0
 32  9  1  0
 25 16  1  0
 32 26  1  0
 25 20  1  0
  1 33  1  0
  1 34  1  0
  1 35  1  0
  2 36  1  0
  2 37  1  0
  7 38  1  0
  7 39  1  0
  7 40  1  0
  8 41  1  0
  8 42  1  0
 15 43  1  0
 15 44  1  0
 17 45  1  0
 18 46  1  0
 19 47  1  0
 21 48  1  0
 22 49  1  0
 23 50  1  0
 24 51  1  0
 27 52  1  0
 28 53  1  0
 31 54  1  0
M  CHG  1  13  -1
M  END
>  <meeko>  (201) 
{"free_energy": -6.72, "intermolecular_energy": -9.11, "internal_energy": -1.55, "cluster_size": 417, "cluster_id": 2, "rank_in_cluster": 185}

$$$$

     RDKit          3D

 54 57  0  0  0  0  0  0  0  0999 V2000
    5.7490   45.3260   12.9570 C   0  0  0  0  0  0  0  0  0  0  0  0
    6.6420   45.4070   14.1980 C   0  0  0  0  0  0  0  0  0  0  0  0
    7.5740   44.3380   14.1740 O   0  0  0  0  0  0  0  0  0  0  0  0
    8.6580   44.4040   13.3720 C   0  0  0  0  0  0  0  0  0  0  0  0
    9.4870   45.3140   13.4270 O   0  0  0  0  0  0  0  0  0  0  0  0
    8.6930   43.3070   12.5020 N   0  0  0  0  0  0  0  0  0  0  0  0
    7.5200   42.8900   11.7250 C   0  0  0  0  0  0  0  0  0  0  0  0
    9.9080   42.4960   12.3460 C   0  0  0  0  0  0  0  0  0  0  0  0
    9.6650   41.0360   12.6470 C   0  0  0  0  0  0  0  0  0  0  0  0
    9.6670   40.3920   13.8710 C   0  0  0  0  0  0  0  0  0  0  0  0
    9.8750   40.9510   15.2430 C   0  0  0  0  0  0  0  0  0  0  0  0
    8.8810   41.3590   15.8820 O   0  0  0  0  0  0  0  0  0  0  0  0
   11.0230   41.0260   15.7330 O   0  0  0  0  0  1  0  0  0  0  0  0
    9.4550   39.0130   13.6590 N   0  0  0  0  0  0  0  0  0  0  0  0
    9.3680   37.9410   14.6550 C   0  0  0  0  0  0  0  0  0  0  0  0
   10.7170   37.4730   15.2170 C   0  0  0  0  0  0  0  0  0  0  0  0
   11.7480   38.4040   15.5010 C   0  0  0  0  0  0  0  0  0  0  0  0
   12.9850   37.9810   16.0160 C   0  0  0  0  0  0  0  0  0  0  0  0
   13.2150   36.6170   16.2560 C   0  0  0  0  0  0  0  0  0  0  0  0
   12.2080   35.6720   15.9810 C   0  0  0  0  0  0  0  0  0  0  0  0
   12.4580   34.3060   16.2280 C   0  0  0  0  0  0  0  0  0  0  0  0
   11.4670   33.3450   15.9610 C   0  0  0  0  0  0  0  0  0  0  0  0
   10.2220   33.7490   15.4460 C   0  0  0  0  0  0  0  0  0  0  0  0
    9.9670   35.1110   15.1960 C   0  0  0  0  0  0  0  0  0  0  0  0
   10.9540   36.0930   15.4600 C   0  0  0  0  0  0  0  0  0  0  0  0
    9.3160   38.7750   12.2980 C   0  0  0  0  0  0  0  0  0  0  0  0
    9.1050   37.5870   11.5680 C   0  0  0  0  0  0  0  0  0  0  0  0
    8.9910   37.6350   10.1680 C   0  0  0  0  0  0  0  0  0  0  0  0
    9.0870   38.8700    9.5040 C   0  0  0  0  0  0  0  0  0  0  0  0
    8.9740   38.9240    8.1550 F   0  0  0  0  0  0  0  0  0  0  0  0
    9.3010   40.0520   10.2390 C   0  0  0  0  0  0  0  0  0  0  0  0
    9.4270   40.0340   11.6500 C   0  0  0  0  0  0  0  0  0  0  0  0
    4.6980   45.2307   13.2672 H   0  0  0  0  0  0  0  0  0  0  0  0
    5.8726   46.2390   12.3561 H   0  0  0  0  0  0  0  0  0  0  0  0
    6.0349   44.4501   12.3561 H   0  0  0  0  0  0  0  0  0  0  0  0
    7.1818   46.3654   14.2006 H   0  0  0  0  0  0  0  0  0  0  0  0
    6.0222   45.3359   15.1039 H   0  0  0  0  0  0  0  0  0  0  0  0
    6.7095   42.6019   12.4107 H   0  0  0  0  0  0  0  0  0  0  0  0
    7.1848   43.7240   11.0910 H   0  0  0  0  0  0  0  0  0  0  0  0
    7.7865   42.0315   11.0910 H   0  0  0  0  0  0  0  0  0  0  0  0
   10.2647   42.5889   11.3096 H   0  0  0  0  0  0  0  0  0  0  0  0
   10.6551   42.8676   13.0628 H   0  0  0  0  0  0  0  0  0  0  0  0
    8.7548   38.3023   15.4937 H   0  0  0  0  0  0  0  0  0  0  0  0
    8.9303   37.0739   14.1388 H   0  0  0  0  0  0  0  0  0  0  0  0
   11.5767   39.4746   15.3152 H   0  0  0  0  0  0  0  0  0  0  0  0
   13.7727   38.7181   16.2310 H   0  0  0  0  0  0  0  0  0  0  0  0
   14.1833   36.2860   16.6595 H   0  0  0  0  0  0  0  0  0  0  0  0
   13.4319   33.9913   16.6310 H   0  0  0  0  0  0  0  0  0  0  0  0
   11.6648   32.2803   16.1543 H   0  0  0  0  0  0  0  0  0  0  0  0
    9.4451   32.9986   15.2379 H   0  0  0  0  0  0  0  0  0  0  0  0
    8.9908   35.4162   14.7913 H   0  0  0  0  0  0  0  0  0  0  0  0
    9.0297   36.6237   12.0938 H   0  0  0  0  0  0  0  0  0  0  0  0
    8.8274   36.7105    9.5948 H   0  0  0  0  0  0  0  0  0  0  0  0
    9.3720   41.0112    9.7053 H   0  0  0  0  0  0  0  0  0  0  0  0
  1  2  1  0
  2  3  1  0
  3  4  1  0
  4  5  2  0
  4  6  1  0
  6  7  1  0
  6  8  1  0
  8  9  1  0
  9 10  2  0
 10 11  1  0
 11 12  2  0
 11 13  1  0
 10 14  1  0
 14 15  1  0
 15 16  1  0
 16 17  2  0
 17 18  1  0
 18 19  2  0
 19 20  1  0
 20 21  2  0
 21 22  1  0
 22 23  2  0
 23 24  1  0
 24 25  2  0
 14 26  1  0
 26 27  2  0
 27 28  1  0
 28 29  2  0
 29 30  1  0
 29 31  1  0
 31 32  2  0
 32  9  1  0
 25 16  1  0
 32 26  1  0
 25 20  1  0
  1 33  1  0
  1 34  1  0
  1 35  1  0
  2 36  1  0
  2 37  1  0
  7 38  1  0
  7 39  1  0
  7 40  1  0
  8 41  1  0
  8 42  1  0
 15 43  1  0
 15 44  1  0
 17 45  1  0
 18 46  1  0
 19 47  1  0
 21 48  1  0
 22 49  1  0
 23 50  1  0
 24 51  1  0
 27 52  1  0
 28 53  1  0
 31 54  1  0
M  CHG  1  13  -1
M  END
>  <meeko>  (202) 
{"free_energy": -5.03, "intermolecular_energy": -7.42, "internal_energy": -1.48, "cluster_size": 121, "cluster_id": 34, "rank_in_cluster": 92}

$$$$

     RDKit          3D

 54 57  0  0  0  0  0  0  0  0999 V2000
    9.8140   39.5180    9.7700 C   0  0  0  0  0  0  0  0  0  0  0  0
    8.8430   40.1370   10.7790 C   0  0  0  0  0  0  0  0  0  0  0  0
    8.9280   41.5510   10.7020 O   0  0  0  0  0  0  0  0  0  0  0  0
    8.5190   42.3100   11.7410 C   0  0  0  0  0  0  0  0  0  0  0  0
    7.3980   42.2220   12.2450 O   0  0  0  0  0  0  0  0  0  0  0  0
    9.5400   43.1800   12.1460 N   0  0  0  0  0  0  0  0  0  0  0  0
    9.2630   44.4210   12.8780 C   0  0  0  0  0  0  0  0  0  0  0  0
   10.9470   42.9040   11.8290 C   0  0  0  0  0  0  0  0  0  0  0  0
   11.4460   41.6410   12.4920 C   0  0  0  0  0  0  0  0  0  0  0  0
   11.1290   41.1350   13.7400 C   0  0  0  0  0  0  0  0  0  0  0  0
   10.1830   41.6630   14.7720 C   0  0  0  0  0  0  0  0  0  0  0  0
    8.9580   41.4740   14.6160 O   0  0  0  0  0  0  0  0  0  0  0  0
   10.6100   42.2990   15.7600 O   0  0  0  0  0  1  0  0  0  0  0  0
   11.8860   39.9640   13.9600 N   0  0  0  0  0  0  0  0  0  0  0  0
   11.8790   39.0830   15.1320 C   0  0  0  0  0  0  0  0  0  0  0  0
   10.6410   38.1840   15.2550 C   0  0  0  0  0  0  0  0  0  0  0  0
    9.9710   38.0370   16.4960 C   0  0  0  0  0  0  0  0  0  0  0  0
    8.8370   37.2150   16.6130 C   0  0  0  0  0  0  0  0  0  0  0  0
    8.3530   36.5220   15.4920 C   0  0  0  0  0  0  0  0  0  0  0  0
    9.0020   36.6500   14.2500 C   0  0  0  0  0  0  0  0  0  0  0  0
    8.5020   35.9460   13.1350 C   0  0  0  0  0  0  0  0  0  0  0  0
    9.1350   36.0580   11.8840 C   0  0  0  0  0  0  0  0  0  0  0  0
   10.2700   36.8760   11.7450 C   0  0  0  0  0  0  0  0  0  0  0  0
   10.7740   37.5810   12.8550 C   0  0  0  0  0  0  0  0  0  0  0  0
   10.1490   37.4800   14.1220 C   0  0  0  0  0  0  0  0  0  0  0  0
   12.6880   39.7220   12.8530 C   0  0  0  0  0  0  0  0  0  0  0  0
   13.6260   38.7060   12.5760 C   0  0  0  0  0  0  0  0  0  0  0  0
   14.3050   38.6960   11.3460 C   0  0  0  0  0  0  0  0  0  0  0  0
   14.0430   39.6990   10.3980 C   0  0  0  0  0  0  0  0  0  0  0  0
   14.6920   39.6930    9.2090 F   0  0  0  0  0  0  0  0  0  0  0  0
   13.1080   40.7130   10.6830 C   0  0  0  0  0  0  0  0  0  0  0  0
   12.4130   40.7530   11.9160 C   0  0  0  0  0  0  0  0  0  0  0  0
   10.6229   39.0024   10.3084 H   0  0  0  0  0  0  0  0  0  0  0  0
    9.2756   38.7961    9.1383 H   0  0  0  0  0  0  0  0  0  0  0  0
   10.2412   40.3108    9.1383 H   0  0  0  0  0  0  0  0  0  0  0  0
    7.8167   39.8170   10.5458 H   0  0  0  0  0  0  0  0  0  0  0  0
    9.1052   39.8060   11.7947 H   0  0  0  0  0  0  0  0  0  0  0  0
    9.3065   44.2261   13.9597 H   0  0  0  0  0  0  0  0  0  0  0  0
   10.0140   45.1793   12.6115 H   0  0  0  0  0  0  0  0  0  0  0  0
    8.2608   44.7880   12.6115 H   0  0  0  0  0  0  0  0  0  0  0  0
   11.0497   42.7960   10.7391 H   0  0  0  0  0  0  0  0  0  0  0  0
   11.5487   43.7436   12.2073 H   0  0  0  0  0  0  0  0  0  0  0  0
   12.7674   38.4364   15.0792 H   0  0  0  0  0  0  0  0  0  0  0  0
   11.8723   39.7409   16.0135 H   0  0  0  0  0  0  0  0  0  0  0  0
   10.3443   38.5743   17.3803 H   0  0  0  0  0  0  0  0  0  0  0  0
    8.3285   37.1146   17.5832 H   0  0  0  0  0  0  0  0  0  0  0  0
    7.4657   35.8784   15.5847 H   0  0  0  0  0  0  0  0  0  0  0  0
    7.6135   35.3068   13.2441 H   0  0  0  0  0  0  0  0  0  0  0  0
    8.7430   35.5069   11.0165 H   0  0  0  0  0  0  0  0  0  0  0  0
   10.7655   36.9655   10.7670 H   0  0  0  0  0  0  0  0  0  0  0  0
   11.6633   38.2175   12.7367 H   0  0  0  0  0  0  0  0  0  0  0  0
   13.8257   37.9225   13.3218 H   0  0  0  0  0  0  0  0  0  0  0  0
   15.0385   37.9063   11.1263 H   0  0  0  0  0  0  0  0  0  0  0  0
   12.9133   41.4915    9.9307 H   0  0  0  0  0  0  0  0  0  0  0  0
  1  2  1  0
  2  3  1  0
  3  4  1  0
  4  5  2  0
  4  6  1  0
  6  7  1  0
  6  8  1  0
  8  9  1  0
  9 10  2  0
 10 11  1  0
 11 12  2  0
 11 13  1  0
 10 14  1  0
 14 15  1  0
 15 16  1  0
 16 17  2  0
 17 18  1  0
 18 19  2  0
 19 20  1  0
 20 21  2  0
 21 22  1  0
 22 23  2  0
 23 24  1  0
 24 25  2  0
 14 26  1  0
 26 27  2  0
 27 28  1  0
 28 29  2  0
 29 30  1  0
 29 31  1  0
 31 32  2  0
 32  9  1  0
 25 16  1  0
 32 26  1  0
 25 20  1  0
  1 33  1  0
  1 34  1  0
  1 35  1  0
  2 36  1  0
  2 37  1  0
  7 38  1  0
  7 39  1  0
  7 40  1  0
  8 41  1  0
  8 42  1  0
 15 43  1  0
 15 44  1  0
 17 45  1  0
 18 46  1  0
 19 47  1  0
 21 48  1  0
 22 49  1  0
 23 50  1  0
 24 51  1  0
 27 52  1  0
 28 53  1  0
 31 54  1  0
M  CHG  1  13  -1
M  END
>  <meeko>  (203) 
{"free_energy": -3.83, "intermolecular_energy": -6.22, "internal_energy": -2.48, "cluster_size": 5, "cluster_id": 113, "rank_in_cluster": 4}

$$$$

     RDKit          3D

 54 57  0  0  0  0  0  0  0  0999 V2000
   13.2030   37.6880   17.7690 C   0  0  0  0  0  0  0  0  0  0  0  0
   13.0410   39.0190   17.0320 C   0  0  0  0  0  0  0  0  0  0  0  0
   11.7620   39.0620   16.4190 O   0  0  0  0  0  0  0  0  0  0  0  0
   10.9140   38.0200   16.5520 C   0  0  0  0  0  0  0  0  0  0  0  0
   10.0820   37.9350   17.4570 O   0  0  0  0  0  0  0  0  0  0  0  0
   11.1170   37.0870   15.5280 N   0  0  0  0  0  0  0  0  0  0  0  0
   10.5990   35.7170   15.6060 C   0  0  0  0  0  0  0  0  0  0  0  0
   11.8910   37.4290   14.3270 C   0  0  0  0  0  0  0  0  0  0  0  0
   11.0050   37.7440   13.1450 C   0  0  0  0  0  0  0  0  0  0  0  0
    9.6880   37.3770   12.9270 C   0  0  0  0  0  0  0  0  0  0  0  0
    8.7570   36.6010   13.8040 C   0  0  0  0  0  0  0  0  0  0  0  0
    8.2650   37.1650   14.8050 O   0  0  0  0  0  0  0  0  0  0  0  0
    8.4900   35.4060   13.5500 O   0  0  0  0  0  1  0  0  0  0  0  0
    9.2920   37.8420   11.6550 N   0  0  0  0  0  0  0  0  0  0  0  0
    7.9890   37.7010   10.9990 C   0  0  0  0  0  0  0  0  0  0  0  0
    7.9630   36.7190    9.8210 C   0  0  0  0  0  0  0  0  0  0  0  0
    8.2330   35.3410   10.0170 C   0  0  0  0  0  0  0  0  0  0  0  0
    8.2100   34.4380    8.9400 C   0  0  0  0  0  0  0  0  0  0  0  0
    7.9190   34.8970    7.6450 C   0  0  0  0  0  0  0  0  0  0  0  0
    7.6490   36.2600    7.4240 C   0  0  0  0  0  0  0  0  0  0  0  0
    7.3590   36.7030    6.1170 C   0  0  0  0  0  0  0  0  0  0  0  0
    7.0870   38.0610    5.8720 C   0  0  0  0  0  0  0  0  0  0  0  0
    7.1040   38.9800    6.9370 C   0  0  0  0  0  0  0  0  0  0  0  0
    7.3940   38.5450    8.2440 C   0  0  0  0  0  0  0  0  0  0  0  0
    7.6690   37.1800    8.5080 C   0  0  0  0  0  0  0  0  0  0  0  0
   10.3560   38.5060   11.0580 C   0  0  0  0  0  0  0  0  0  0  0  0
   10.4860   39.1340    9.8020 C   0  0  0  0  0  0  0  0  0  0  0  0
   11.6990   39.7490    9.4490 C   0  0  0  0  0  0  0  0  0  0  0  0
   12.7760   39.7360   10.3530 C   0  0  0  0  0  0  0  0  0  0  0  0
   13.9460   40.3320   10.0200 F   0  0  0  0  0  0  0  0  0  0  0  0
   12.6390   39.1040   11.6030 C   0  0  0  0  0  0  0  0  0  0  0  0
   11.4320   38.4690   11.9850 C   0  0  0  0  0  0  0  0  0  0  0  0
   13.1815   37.8649   18.8545 H   0  0  0  0  0  0  0  0  0  0  0  0
   12.3804   37.0126   17.4912 H   0  0  0  0  0  0  0  0  0  0  0  0
   14.1636   37.2296   17.4912 H   0  0  0  0  0  0  0  0  0  0  0  0
   13.1337   39.8492   17.7477 H   0  0  0  0  0  0  0  0  0  0  0  0
   13.8220   39.1123   16.2630 H   0  0  0  0  0  0  0  0  0  0  0  0
   10.4890   35.4261   16.6611 H   0  0  0  0  0  0  0  0  0  0  0  0
    9.6197   35.6664   15.1077 H   0  0  0  0  0  0  0  0  0  0  0  0
   11.2999   35.0311   15.1077 H   0  0  0  0  0  0  0  0  0  0  0  0
   12.5143   38.3084   14.5463 H   0  0  0  0  0  0  0  0  0  0  0  0
   12.5065   36.5563   14.0633 H   0  0  0  0  0  0  0  0  0  0  0  0
    7.2641   37.3535   11.7498 H   0  0  0  0  0  0  0  0  0  0  0  0
    7.7441   38.6893   10.5828 H   0  0  0  0  0  0  0  0  0  0  0  0
    8.4640   34.9728   11.0275 H   0  0  0  0  0  0  0  0  0  0  0  0
    8.4199   33.3719    9.1115 H   0  0  0  0  0  0  0  0  0  0  0  0
    7.9022   34.1900    6.8025 H   0  0  0  0  0  0  0  0  0  0  0  0
    7.3455   35.9832    5.2853 H   0  0  0  0  0  0  0  0  0  0  0  0
    6.8618   38.4033    4.8512 H   0  0  0  0  0  0  0  0  0  0  0  0
    6.8899   40.0422    6.7478 H   0  0  0  0  0  0  0  0  0  0  0  0
    7.4073   39.2723    9.0692 H   0  0  0  0  0  0  0  0  0  0  0  0
    9.6392   39.1423    9.0999 H   0  0  0  0  0  0  0  0  0  0  0  0
   11.8057   40.2385    8.4697 H   0  0  0  0  0  0  0  0  0  0  0  0
   13.4899   39.1032   12.3001 H   0  0  0  0  0  0  0  0  0  0  0  0
  1  2  1  0
  2  3  1  0
  3  4  1  0
  4  5  2  0
  4  6  1  0
  6  7  1  0
  6  8  1  0
  8  9  1  0
  9 10  2  0
 10 11  1  0
 11 12  2  0
 11 13  1  0
 10 14  1  0
 14 15  1  0
 15 16  1  0
 16 17  2  0
 17 18  1  0
 18 19  2  0
 19 20  1  0
 20 21  2  0
 21 22  1  0
 22 23  2  0
 23 24  1  0
 24 25  2  0
 14 26  1  0
 26 27  2  0
 27 28  1  0
 28 29  2  0
 29 30  1  0
 29 31  1  0
 31 32  2  0
 32  9  1  0
 25 16  1  0
 32 26  1  0
 25 20  1  0
  1 33  1  0
  1 34  1  0
  1 35  1  0
  2 36  1  0
  2 37  1  0
  7 38  1  0
  7 39  1  0
  7 40  1  0
  8 41  1  0
  8 42  1  0
 15 43  1  0
 15 44  1  0
 17 45  1  0
 18 46  1  0
 19 47  1  0
 21 48  1  0
 22 49  1  0
 23 50  1  0
 24 51  1  0
 27 52  1  0
 28 53  1  0
 31 54  1  0
M  CHG  1  13  -1
M  END
>  <meeko>  (204) 
{"free_energy": -6.48, "intermolecular_energy": -8.87, "internal_energy": -1.14, "cluster_size": 263, "cluster_id": 1, "rank_in_cluster": 154}

$$$$

     RDKit          3D

 54 57  0  0  0  0  0  0  0  0999 V2000
   10.2120   41.9440   12.5940 C   0  0  0  0  0  0  0  0  0  0  0  0
   11.3840   42.1670   11.6340 C   0  0  0  0  0  0  0  0  0  0  0  0
   12.5930   42.2060   12.3750 O   0  0  0  0  0  0  0  0  0  0  0  0
   13.0170   41.1090   13.0370 C   0  0  0  0  0  0  0  0  0  0  0  0
   12.7050   40.8570   14.2020 O   0  0  0  0  0  0  0  0  0  0  0  0
   13.8350   40.3240   12.2140 N   0  0  0  0  0  0  0  0  0  0  0  0
   14.9680   40.8890   11.4730 C   0  0  0  0  0  0  0  0  0  0  0  0
   13.5780   38.8900   12.0290 C   0  0  0  0  0  0  0  0  0  0  0  0
   12.1050   38.5590   12.0960 C   0  0  0  0  0  0  0  0  0  0  0  0
   11.1420   38.6900   11.1100 C   0  0  0  0  0  0  0  0  0  0  0  0
   11.2820   39.1580    9.6960 C   0  0  0  0  0  0  0  0  0  0  0  0
   11.7420   40.3010    9.4850 O   0  0  0  0  0  0  0  0  0  0  0  0
   10.9270   38.4270    8.7460 O   0  0  0  0  0  1  0  0  0  0  0  0
    9.8910   38.3180   11.6460 N   0  0  0  0  0  0  0  0  0  0  0  0
    8.5870   38.2860   10.9770 C   0  0  0  0  0  0  0  0  0  0  0  0
    8.4030   37.1350    9.9790 C   0  0  0  0  0  0  0  0  0  0  0  0
    8.7440   35.8050   10.3330 C   0  0  0  0  0  0  0  0  0  0  0  0
    8.5770   34.7480    9.4230 C   0  0  0  0  0  0  0  0  0  0  0  0
    8.0660   35.0000    8.1390 C   0  0  0  0  0  0  0  0  0  0  0  0
    7.7210   36.3120    7.7630 C   0  0  0  0  0  0  0  0  0  0  0  0
    7.2110   36.5480    6.4700 C   0  0  0  0  0  0  0  0  0  0  0  0
    6.8600   37.8500    6.0720 C   0  0  0  0  0  0  0  0  0  0  0  0
    7.0190   38.9220    6.9690 C   0  0  0  0  0  0  0  0  0  0  0  0
    7.5290   38.6930    8.2620 C   0  0  0  0  0  0  0  0  0  0  0  0
    7.8870   37.3880    8.6790 C   0  0  0  0  0  0  0  0  0  0  0  0
   10.0530   37.9500   12.9750 C   0  0  0  0  0  0  0  0  0  0  0  0
    9.1300   37.5180   13.9500 C   0  0  0  0  0  0  0  0  0  0  0  0
    9.5760   37.1950   15.2430 C   0  0  0  0  0  0  0  0  0  0  0  0
   10.9420   37.3030   15.5560 C   0  0  0  0  0  0  0  0  0  0  0  0
   11.3790   36.9890   16.7990 F   0  0  0  0  0  0  0  0  0  0  0  0
   11.8570   37.7390   14.5780 C   0  0  0  0  0  0  0  0  0  0  0  0
   11.4370   38.0780   13.2690 C   0  0  0  0  0  0  0  0  0  0  0  0
   10.5701   42.0121   13.6319 H   0  0  0  0  0  0  0  0  0  0  0  0
    9.4441   42.7122   12.4199 H   0  0  0  0  0  0  0  0  0  0  0  0
    9.7799   40.9475   12.4199 H   0  0  0  0  0  0  0  0  0  0  0  0
   11.4251   41.3434   10.9060 H   0  0  0  0  0  0  0  0  0  0  0  0
   11.2476   43.1184   11.0990 H   0  0  0  0  0  0  0  0  0  0  0  0
   15.7200   41.2640   12.1828 H   0  0  0  0  0  0  0  0  0  0  0  0
   15.4176   40.1096   10.8403 H   0  0  0  0  0  0  0  0  0  0  0  0
   14.6160   41.7171   10.8403 H   0  0  0  0  0  0  0  0  0  0  0  0
   13.9649   38.5851   11.0455 H   0  0  0  0  0  0  0  0  0  0  0  0
   14.0822   38.3495   12.8436 H   0  0  0  0  0  0  0  0  0  0  0  0
    7.8086   38.1970   11.7491 H   0  0  0  0  0  0  0  0  0  0  0  0
    8.5158   39.2157   10.3934 H   0  0  0  0  0  0  0  0  0  0  0  0
    9.1456   35.5977   11.3359 H   0  0  0  0  0  0  0  0  0  0  0  0
    8.8465   33.7226    9.7160 H   0  0  0  0  0  0  0  0  0  0  0  0
    7.9354   34.1717    7.4270 H   0  0  0  0  0  0  0  0  0  0  0  0
    7.0871   35.7093    5.7691 H   0  0  0  0  0  0  0  0  0  0  0  0
    6.4623   38.0299    5.0623 H   0  0  0  0  0  0  0  0  0  0  0  0
    6.7444   39.9414    6.6600 H   0  0  0  0  0  0  0  0  0  0  0  0
    7.6506   39.5379    8.9559 H   0  0  0  0  0  0  0  0  0  0  0  0
    8.0624   37.4340   13.6987 H   0  0  0  0  0  0  0  0  0  0  0  0
    8.8592   36.8591   16.0068 H   0  0  0  0  0  0  0  0  0  0  0  0
   12.9231   37.8180   14.8373 H   0  0  0  0  0  0  0  0  0  0  0  0
  1  2  1  0
  2  3  1  0
  3  4  1  0
  4  5  2  0
  4  6  1  0
  6  7  1  0
  6  8  1  0
  8  9  1  0
  9 10  2  0
 10 11  1  0
 11 12  2  0
 11 13  1  0
 10 14  1  0
 14 15  1  0
 15 16  1  0
 16 17  2  0
 17 18  1  0
 18 19  2  0
 19 20  1  0
 20 21  2  0
 21 22  1  0
 22 23  2  0
 23 24  1  0
 24 25  2  0
 14 26  1  0
 26 27  2  0
 27 28  1  0
 28 29  2  0
 29 30  1  0
 29 31  1  0
 31 32  2  0
 32  9  1  0
 25 16  1  0
 32 26  1  0
 25 20  1  0
  1 33  1  0
  1 34  1  0
  1 35  1  0
  2 36  1  0
  2 37  1  0
  7 38  1  0
  7 39  1  0
  7 40  1  0
  8 41  1  0
  8 42  1  0
 15 43  1  0
 15 44  1  0
 17 45  1  0
 18 46  1  0
 19 47  1  0
 21 48  1  0
 22 49  1  0
 23 50  1  0
 24 51  1  0
 27 52  1  0
 28 53  1  0
 31 54  1  0
M  CHG  1  13  -1
M  END
>  <meeko>  (205) 
{"free_energy": -6.56, "intermolecular_energy": -8.94, "internal_energy": -2.51, "cluster_size": 292, "cluster_id": 10, "rank_in_cluster": 62}

$$$$

     RDKit          3D

 54 57  0  0  0  0  0  0  0  0999 V2000
    5.9300   35.9310   18.5140 C   0  0  0  0  0  0  0  0  0  0  0  0
    6.5520   35.2220   17.3080 C   0  0  0  0  0  0  0  0  0  0  0  0
    7.9530   35.4390   17.3110 O   0  0  0  0  0  0  0  0  0  0  0  0
    8.4660   36.5550   16.7490 C   0  0  0  0  0  0  0  0  0  0  0  0
    7.8710   37.2210   15.9000 O   0  0  0  0  0  0  0  0  0  0  0  0
    9.7350   36.8300   17.2730 N   0  0  0  0  0  0  0  0  0  0  0  0
    9.9180   37.5110   18.5600 C   0  0  0  0  0  0  0  0  0  0  0  0
   10.9560   36.4730   16.5390 C   0  0  0  0  0  0  0  0  0  0  0  0
   10.8060   36.6680   15.0490 C   0  0  0  0  0  0  0  0  0  0  0  0
   10.1040   35.8960   14.1400 C   0  0  0  0  0  0  0  0  0  0  0  0
    9.2700   34.6750   14.3690 C   0  0  0  0  0  0  0  0  0  0  0  0
    8.1540   34.5970   13.8120 O   0  0  0  0  0  0  0  0  0  0  0  0
    9.6740   33.7590   15.1190 O   0  0  0  0  0  1  0  0  0  0  0  0
   10.3010   36.4250   12.8470 N   0  0  0  0  0  0  0  0  0  0  0  0
    9.7500   35.9490   11.5750 C   0  0  0  0  0  0  0  0  0  0  0  0
    9.0480   37.0240   10.7340 C   0  0  0  0  0  0  0  0  0  0  0  0
    8.9020   38.3470   11.2210 C   0  0  0  0  0  0  0  0  0  0  0  0
    8.2600   39.3340   10.4540 C   0  0  0  0  0  0  0  0  0  0  0  0
    7.7490   39.0160    9.1850 C   0  0  0  0  0  0  0  0  0  0  0  0
    7.8810   37.7090    8.6800 C   0  0  0  0  0  0  0  0  0  0  0  0
    7.3620   37.4070    7.4030 C   0  0  0  0  0  0  0  0  0  0  0  0
    7.4810   36.1080    6.8780 C   0  0  0  0  0  0  0  0  0  0  0  0
    8.1210   35.1070    7.6300 C   0  0  0  0  0  0  0  0  0  0  0  0
    8.6410   35.4010    8.9050 C   0  0  0  0  0  0  0  0  0  0  0  0
    8.5300   36.7050    9.4490 C   0  0  0  0  0  0  0  0  0  0  0  0
   11.1290   37.5370   12.9280 C   0  0  0  0  0  0  0  0  0  0  0  0
   11.6370   38.4050   11.9400 C   0  0  0  0  0  0  0  0  0  0  0  0
   12.4640   39.4790   12.3080 C   0  0  0  0  0  0  0  0  0  0  0  0
   12.7790   39.6830   13.6630 C   0  0  0  0  0  0  0  0  0  0  0  0
   13.5730   40.7190   14.0250 F   0  0  0  0  0  0  0  0  0  0  0  0
   12.2710   38.8090   14.6440 C   0  0  0  0  0  0  0  0  0  0  0  0
   11.4410   37.7140   14.3030 C   0  0  0  0  0  0  0  0  0  0  0  0
    6.3198   35.4867   19.4417 H   0  0  0  0  0  0  0  0  0  0  0  0
    6.1868   37.0002   18.4834 H   0  0  0  0  0  0  0  0  0  0  0  0
    4.8365   35.8155   18.4834 H   0  0  0  0  0  0  0  0  0  0  0  0
    6.3467   34.1431   17.3694 H   0  0  0  0  0  0  0  0  0  0  0  0
    6.1181   35.6223   16.3798 H   0  0  0  0  0  0  0  0  0  0  0  0
    9.7277   36.8028   19.3799 H   0  0  0  0  0  0  0  0  0  0  0  0
   10.9491   37.8872   18.6324 H   0  0  0  0  0  0  0  0  0  0  0  0
    9.2144   38.3534   18.6324 H   0  0  0  0  0  0  0  0  0  0  0  0
   11.7818   37.1052   16.8972 H   0  0  0  0  0  0  0  0  0  0  0  0
   11.1585   35.4071   16.7205 H   0  0  0  0  0  0  0  0  0  0  0  0
   10.5757   35.5335   10.9787 H   0  0  0  0  0  0  0  0  0  0  0  0
    8.9810   35.2050   11.8302 H   0  0  0  0  0  0  0  0  0  0  0  0
    9.2973   38.6051   12.2145 H   0  0  0  0  0  0  0  0  0  0  0  0
    8.1576   40.3560   10.8476 H   0  0  0  0  0  0  0  0  0  0  0  0
    7.2454   39.7888    8.5856 H   0  0  0  0  0  0  0  0  0  0  0  0
    6.8621   38.1913    6.8156 H   0  0  0  0  0  0  0  0  0  0  0  0
    7.0748   35.8757    5.8825 H   0  0  0  0  0  0  0  0  0  0  0  0
    8.2158   34.0904    7.2207 H   0  0  0  0  0  0  0  0  0  0  0  0
    9.1388   34.6100    9.4852 H   0  0  0  0  0  0  0  0  0  0  0  0
   11.3859   38.2412   10.8816 H   0  0  0  0  0  0  0  0  0  0  0  0
   12.8634   40.1574   11.5397 H   0  0  0  0  0  0  0  0  0  0  0  0
   12.5253   38.9814   15.7002 H   0  0  0  0  0  0  0  0  0  0  0  0
  1  2  1  0
  2  3  1  0
  3  4  1  0
  4  5  2  0
  4  6  1  0
  6  7  1  0
  6  8  1  0
  8  9  1  0
  9 10  2  0
 10 11  1  0
 11 12  2  0
 11 13  1  0
 10 14  1  0
 14 15  1  0
 15 16  1  0
 16 17  2  0
 17 18  1  0
 18 19  2  0
 19 20  1  0
 20 21  2  0
 21 22  1  0
 22 23  2  0
 23 24  1  0
 24 25  2  0
 14 26  1  0
 26 27  2  0
 27 28  1  0
 28 29  2  0
 29 30  1  0
 29 31  1  0
 31 32  2  0
 32  9  1  0
 25 16  1  0
 32 26  1  0
 25 20  1  0
  1 33  1  0
  1 34  1  0
  1 35  1  0
  2 36  1  0
  2 37  1  0
  7 38  1  0
  7 39  1  0
  7 40  1  0
  8 41  1  0
  8 42  1  0
 15 43  1  0
 15 44  1  0
 17 45  1  0
 18 46  1  0
 19 47  1  0
 21 48  1  0
 22 49  1  0
 23 50  1  0
 24 51  1  0
 27 52  1  0
 28 53  1  0
 31 54  1  0
M  CHG  1  13  -1
M  END
>  <meeko>  (206) 
{"free_energy": -7.55, "intermolecular_energy": -9.94, "internal_energy": -1.22, "cluster_size": 263, "cluster_id": 1, "rank_in_cluster": 46}

$$$$

     RDKit          3D

 54 57  0  0  0  0  0  0  0  0999 V2000
   10.7480   37.5010   13.9100 C   0  0  0  0  0  0  0  0  0  0  0  0
   10.0480   38.5410   13.0310 C   0  0  0  0  0  0  0  0  0  0  0  0
    9.0410   37.9020   12.2640 O   0  0  0  0  0  0  0  0  0  0  0  0
    9.3530   37.3290   11.0810 C   0  0  0  0  0  0  0  0  0  0  0  0
   10.0130   36.2940   10.9830 O   0  0  0  0  0  0  0  0  0  0  0  0
    8.8180   38.0710   10.0200 N   0  0  0  0  0  0  0  0  0  0  0  0
    7.3770   38.1170    9.7480 C   0  0  0  0  0  0  0  0  0  0  0  0
    9.6850   38.8230    9.1030 C   0  0  0  0  0  0  0  0  0  0  0  0
   10.3650   39.9870    9.7840 C   0  0  0  0  0  0  0  0  0  0  0  0
   11.7090   40.3150    9.8030 C   0  0  0  0  0  0  0  0  0  0  0  0
   12.8650   39.6400    9.1340 C   0  0  0  0  0  0  0  0  0  0  0  0
   12.7260   39.2330    7.9610 O   0  0  0  0  0  0  0  0  0  0  0  0
   13.9430   39.4710    9.7450 O   0  0  0  0  0  1  0  0  0  0  0  0
   11.8880   41.4520   10.6200 N   0  0  0  0  0  0  0  0  0  0  0  0
   13.1310   42.1640   10.9300 C   0  0  0  0  0  0  0  0  0  0  0  0
   13.2280   43.5780   10.3410 C   0  0  0  0  0  0  0  0  0  0  0  0
   13.5280   44.6900   11.1680 C   0  0  0  0  0  0  0  0  0  0  0  0
   13.6180   45.9860   10.6330 C   0  0  0  0  0  0  0  0  0  0  0  0
   13.4060   46.1960    9.2610 C   0  0  0  0  0  0  0  0  0  0  0  0
   13.1050   45.1090    8.4190 C   0  0  0  0  0  0  0  0  0  0  0  0
   12.8950   45.3380    7.0440 C   0  0  0  0  0  0  0  0  0  0  0  0
   12.5920   44.2670    6.1850 C   0  0  0  0  0  0  0  0  0  0  0  0
   12.4990   42.9620    6.7000 C   0  0  0  0  0  0  0  0  0  0  0  0
   12.7070   42.7260    8.0730 C   0  0  0  0  0  0  0  0  0  0  0  0
   13.0130   43.7940    8.9520 C   0  0  0  0  0  0  0  0  0  0  0  0
   10.6570   41.8510   11.1240 C   0  0  0  0  0  0  0  0  0  0  0  0
   10.2920   42.9050   11.9870 C   0  0  0  0  0  0  0  0  0  0  0  0
    8.9440   43.0910   12.3360 C   0  0  0  0  0  0  0  0  0  0  0  0
    7.9650   42.2240   11.8190 C   0  0  0  0  0  0  0  0  0  0  0  0
    6.6630   42.4000   12.1470 F   0  0  0  0  0  0  0  0  0  0  0  0
    8.3380   41.1720   10.9600 C   0  0  0  0  0  0  0  0  0  0  0  0
    9.6890   40.9560   10.5960 C   0  0  0  0  0  0  0  0  0  0  0  0
   10.5832   37.7459   14.9697 H   0  0  0  0  0  0  0  0  0  0  0  0
   10.3368   36.5035   13.6959 H   0  0  0  0  0  0  0  0  0  0  0  0
   11.8270   37.5065   13.6959 H   0  0  0  0  0  0  0  0  0  0  0  0
    9.5912   39.3131   13.6676 H   0  0  0  0  0  0  0  0  0  0  0  0
   10.7816   39.0108   12.3593 H   0  0  0  0  0  0  0  0  0  0  0  0
    6.8247   38.1346   10.6991 H   0  0  0  0  0  0  0  0  0  0  0  0
    7.1416   39.0231    9.1705 H   0  0  0  0  0  0  0  0  0  0  0  0
    7.0843   37.2277    9.1705 H   0  0  0  0  0  0  0  0  0  0  0  0
   10.4556   38.1446    8.7082 H   0  0  0  0  0  0  0  0  0  0  0  0
    9.0541   39.2259    8.2970 H   0  0  0  0  0  0  0  0  0  0  0  0
   13.2165   42.2425   12.0239 H   0  0  0  0  0  0  0  0  0  0  0  0
   13.9436   41.5815   10.4713 H   0  0  0  0  0  0  0  0  0  0  0  0
   13.6927   44.5357   12.2446 H   0  0  0  0  0  0  0  0  0  0  0  0
   13.8546   46.8365   11.2893 H   0  0  0  0  0  0  0  0  0  0  0  0
   13.4752   47.2114    8.8436 H   0  0  0  0  0  0  0  0  0  0  0  0
   12.9685   46.3590    6.6414 H   0  0  0  0  0  0  0  0  0  0  0  0
   12.4281   44.4496    5.1127 H   0  0  0  0  0  0  0  0  0  0  0  0
   12.2632   42.1230    6.0288 H   0  0  0  0  0  0  0  0  0  0  0  0
   12.6310   41.7017    8.4668 H   0  0  0  0  0  0  0  0  0  0  0  0
   11.0623   43.5810   12.3866 H   0  0  0  0  0  0  0  0  0  0  0  0
    8.6557   43.9108   13.0104 H   0  0  0  0  0  0  0  0  0  0  0  0
    7.5612   40.5023   10.5625 H   0  0  0  0  0  0  0  0  0  0  0  0
  1  2  1  0
  2  3  1  0
  3  4  1  0
  4  5  2  0
  4  6  1  0
  6  7  1  0
  6  8  1  0
  8  9  1  0
  9 10  2  0
 10 11  1  0
 11 12  2  0
 11 13  1  0
 10 14  1  0
 14 15  1  0
 15 16  1  0
 16 17  2  0
 17 18  1  0
 18 19  2  0
 19 20  1  0
 20 21  2  0
 21 22  1  0
 22 23  2  0
 23 24  1  0
 24 25  2  0
 14 26  1  0
 26 27  2  0
 27 28  1  0
 28 29  2  0
 29 30  1  0
 29 31  1  0
 31 32  2  0
 32  9  1  0
 25 16  1  0
 32 26  1  0
 25 20  1  0
  1 33  1  0
  1 34  1  0
  1 35  1  0
  2 36  1  0
  2 37  1  0
  7 38  1  0
  7 39  1  0
  7 40  1  0
  8 41  1  0
  8 42  1  0
 15 43  1  0
 15 44  1  0
 17 45  1  0
 18 46  1  0
 19 47  1  0
 21 48  1  0
 22 49  1  0
 23 50  1  0
 24 51  1  0
 27 52  1  0
 28 53  1  0
 31 54  1  0
M  CHG  1  13  -1
M  END
>  <meeko>  (207) 
{"free_energy": -4.22, "intermolecular_energy": -6.61, "internal_energy": -2.34, "cluster_size": 4, "cluster_id": 201, "rank_in_cluster": 4}

$$$$

     RDKit          3D

 54 57  0  0  0  0  0  0  0  0999 V2000
   16.9810   37.9530   17.1560 C   0  0  0  0  0  0  0  0  0  0  0  0
   16.1870   37.3720   15.9830 C   0  0  0  0  0  0  0  0  0  0  0  0
   14.8150   37.6930   16.1420 O   0  0  0  0  0  0  0  0  0  0  0  0
   14.2340   37.5920   17.3570 C   0  0  0  0  0  0  0  0  0  0  0  0
   14.3190   38.4630   18.2230 O   0  0  0  0  0  0  0  0  0  0  0  0
   13.5360   36.3820   17.4680 N   0  0  0  0  0  0  0  0  0  0  0  0
   14.2140   35.0820   17.4210 C   0  0  0  0  0  0  0  0  0  0  0  0
   12.0740   36.3560   17.6100 C   0  0  0  0  0  0  0  0  0  0  0  0
   11.3670   36.5760   16.2930 C   0  0  0  0  0  0  0  0  0  0  0  0
   11.1050   35.6620   15.2880 C   0  0  0  0  0  0  0  0  0  0  0  0
   11.4090   34.1980   15.2260 C   0  0  0  0  0  0  0  0  0  0  0  0
   11.9350   33.6520   16.2190 O   0  0  0  0  0  0  0  0  0  0  0  0
   11.1590   33.5390   14.1930 O   0  0  0  0  0  1  0  0  0  0  0  0
   10.4790   36.3330   14.2160 N   0  0  0  0  0  0  0  0  0  0  0  0
   10.0090   35.7780   12.9430 C   0  0  0  0  0  0  0  0  0  0  0  0
   10.2540   36.6710   11.7200 C   0  0  0  0  0  0  0  0  0  0  0  0
   11.3560   37.5610   11.6800 C   0  0  0  0  0  0  0  0  0  0  0  0
   11.5840   38.3810   10.5610 C   0  0  0  0  0  0  0  0  0  0  0  0
   10.7130   38.3270    9.4620 C   0  0  0  0  0  0  0  0  0  0  0  0
    9.6100   37.4520    9.4780 C   0  0  0  0  0  0  0  0  0  0  0  0
    8.7450   37.4110    8.3650 C   0  0  0  0  0  0  0  0  0  0  0  0
    7.6370   36.5460    8.3590 C   0  0  0  0  0  0  0  0  0  0  0  0
    7.3920   35.7170    9.4690 C   0  0  0  0  0  0  0  0  0  0  0  0
    8.2510   35.7530   10.5830 C   0  0  0  0  0  0  0  0  0  0  0  0
    9.3720   36.6190   10.6050 C   0  0  0  0  0  0  0  0  0  0  0  0
   10.3410   37.6780   14.5350 C   0  0  0  0  0  0  0  0  0  0  0  0
    9.8030   38.7640   13.8160 C   0  0  0  0  0  0  0  0  0  0  0  0
    9.7810   40.0450   14.3930 C   0  0  0  0  0  0  0  0  0  0  0  0
   10.2950   40.2350   15.6870 C   0  0  0  0  0  0  0  0  0  0  0  0
   10.2730   41.4660   16.2510 F   0  0  0  0  0  0  0  0  0  0  0  0
   10.8340   39.1450   16.3990 C   0  0  0  0  0  0  0  0  0  0  0  0
   10.8760   37.8440   15.8410 C   0  0  0  0  0  0  0  0  0  0  0  0
   16.5299   37.6229   18.1034 H   0  0  0  0  0  0  0  0  0  0  0  0
   18.0222   37.6019   17.1037 H   0  0  0  0  0  0  0  0  0  0  0  0
   16.9614   39.0516   17.1037 H   0  0  0  0  0  0  0  0  0  0  0  0
   16.5578   37.8003   15.0401 H   0  0  0  0  0  0  0  0  0  0  0  0
   16.3098   36.2791   15.9598 H   0  0  0  0  0  0  0  0  0  0  0  0
   14.3988   34.7276   18.4458 H   0  0  0  0  0  0  0  0  0  0  0  0
   13.5794   34.3565   16.8910 H   0  0  0  0  0  0  0  0  0  0  0  0
   15.1721   35.1871   16.8910 H   0  0  0  0  0  0  0  0  0  0  0  0
   11.7749   35.3772   18.0131 H   0  0  0  0  0  0  0  0  0  0  0  0
   11.7867   37.1737   18.2874 H   0  0  0  0  0  0  0  0  0  0  0  0
   10.5248   34.8209   12.7762 H   0  0  0  0  0  0  0  0  0  0  0  0
    8.9179   35.6739   13.0357 H   0  0  0  0  0  0  0  0  0  0  0  0
   12.0434   37.6110   12.5373 H   0  0  0  0  0  0  0  0  0  0  0  0
   12.4453   39.0651   10.5469 H   0  0  0  0  0  0  0  0  0  0  0  0
   10.8922   38.9690    8.5870 H   0  0  0  0  0  0  0  0  0  0  0  0
    8.9383   38.0590    7.4974 H   0  0  0  0  0  0  0  0  0  0  0  0
    6.9639   36.5174    7.4895 H   0  0  0  0  0  0  0  0  0  0  0  0
    6.5262   35.0385    9.4660 H   0  0  0  0  0  0  0  0  0  0  0  0
    8.0499   35.1016   11.4462 H   0  0  0  0  0  0  0  0  0  0  0  0
    9.4007   38.6090   12.8040 H   0  0  0  0  0  0  0  0  0  0  0  0
    9.3632   40.8954   13.8342 H   0  0  0  0  0  0  0  0  0  0  0  0
   11.2313   39.3084   17.4116 H   0  0  0  0  0  0  0  0  0  0  0  0
  1  2  1  0
  2  3  1  0
  3  4  1  0
  4  5  2  0
  4  6  1  0
  6  7  1  0
  6  8  1  0
  8  9  1  0
  9 10  2  0
 10 11  1  0
 11 12  2  0
 11 13  1  0
 10 14  1  0
 14 15  1  0
 15 16  1  0
 16 17  2  0
 17 18  1  0
 18 19  2  0
 19 20  1  0
 20 21  2  0
 21 22  1  0
 22 23  2  0
 23 24  1  0
 24 25  2  0
 14 26  1  0
 26 27  2  0
 27 28  1  0
 28 29  2  0
 29 30  1  0
 29 31  1  0
 31 32  2  0
 32  9  1  0
 25 16  1  0
 32 26  1  0
 25 20  1  0
  1 33  1  0
  1 34  1  0
  1 35  1  0
  2 36  1  0
  2 37  1  0
  7 38  1  0
  7 39  1  0
  7 40  1  0
  8 41  1  0
  8 42  1  0
 15 43  1  0
 15 44  1  0
 17 45  1  0
 18 46  1  0
 19 47  1  0
 21 48  1  0
 22 49  1  0
 23 50  1  0
 24 51  1  0
 27 52  1  0
 28 53  1  0
 31 54  1  0
M  CHG  1  13  -1
M  END
>  <meeko>  (208) 
{"free_energy": -5.2, "intermolecular_energy": -7.59, "internal_energy": -1.33, "cluster_size": 3, "cluster_id": 155, "rank_in_cluster": 1}

$$$$

     RDKit          3D

 54 57  0  0  0  0  0  0  0  0999 V2000
   11.0810   33.1900   14.7660 C   0  0  0  0  0  0  0  0  0  0  0  0
   10.7200   33.7630   16.1390 C   0  0  0  0  0  0  0  0  0  0  0  0
    9.5230   34.5160   16.0300 O   0  0  0  0  0  0  0  0  0  0  0  0
    8.8290   34.5210   14.8720 C   0  0  0  0  0  0  0  0  0  0  0  0
    8.1270   33.5800   14.4990 O   0  0  0  0  0  0  0  0  0  0  0  0
    9.0220   35.7280   14.1880 N   0  0  0  0  0  0  0  0  0  0  0  0
    8.5160   37.0060   14.7020 C   0  0  0  0  0  0  0  0  0  0  0  0
    9.7230   35.7690   12.8970 C   0  0  0  0  0  0  0  0  0  0  0  0
   10.4400   37.0800   12.6770 C   0  0  0  0  0  0  0  0  0  0  0  0
   10.4690   37.8720   11.5430 C   0  0  0  0  0  0  0  0  0  0  0  0
    9.7780   37.6830   10.2290 C   0  0  0  0  0  0  0  0  0  0  0  0
    8.6280   37.1920   10.2210 O   0  0  0  0  0  0  0  0  0  0  0  0
   10.3470   37.9920    9.1600 O   0  0  0  0  0  1  0  0  0  0  0  0
   11.3220   38.9720   11.7780 N   0  0  0  0  0  0  0  0  0  0  0  0
   11.6530   40.0770   10.8740 C   0  0  0  0  0  0  0  0  0  0  0  0
   12.8830   39.8380    9.9880 C   0  0  0  0  0  0  0  0  0  0  0  0
   13.7640   38.7580   10.2440 C   0  0  0  0  0  0  0  0  0  0  0  0
   14.8920   38.5360    9.4350 C   0  0  0  0  0  0  0  0  0  0  0  0
   15.1610   39.3920    8.3550 C   0  0  0  0  0  0  0  0  0  0  0  0
   14.3020   40.4730    8.0810 C   0  0  0  0  0  0  0  0  0  0  0  0
   14.5880   41.3230    6.9930 C   0  0  0  0  0  0  0  0  0  0  0  0
   13.7440   42.4090    6.7000 C   0  0  0  0  0  0  0  0  0  0  0  0
   12.6100   42.6470    7.4970 C   0  0  0  0  0  0  0  0  0  0  0  0
   12.3200   41.8030    8.5860 C   0  0  0  0  0  0  0  0  0  0  0  0
   13.1590   40.7040    8.8940 C   0  0  0  0  0  0  0  0  0  0  0  0
   11.8390   38.8830   13.0640 C   0  0  0  0  0  0  0  0  0  0  0  0
   12.7370   39.7060   13.7740 C   0  0  0  0  0  0  0  0  0  0  0  0
   13.0920   39.3800   15.0940 C   0  0  0  0  0  0  0  0  0  0  0  0
   12.5480   38.2330   15.6980 C   0  0  0  0  0  0  0  0  0  0  0  0
   12.8840   37.9150   16.9710 F   0  0  0  0  0  0  0  0  0  0  0  0
   11.6550   37.4140   14.9810 C   0  0  0  0  0  0  0  0  0  0  0  0
   11.2840   37.7130   13.6480 C   0  0  0  0  0  0  0  0  0  0  0  0
   11.6632   32.2658   14.8959 H   0  0  0  0  0  0  0  0  0  0  0  0
   10.1597   32.9675   14.2078 H   0  0  0  0  0  0  0  0  0  0  0  0
   11.6795   33.9250   14.2078 H   0  0  0  0  0  0  0  0  0  0  0  0
   10.5732   32.9401   16.8541 H   0  0  0  0  0  0  0  0  0  0  0  0
   11.5339   34.4121   16.4942 H   0  0  0  0  0  0  0  0  0  0  0  0
    8.5233   36.9876   15.8018 H   0  0  0  0  0  0  0  0  0  0  0  0
    9.1578   37.8248   14.3447 H   0  0  0  0  0  0  0  0  0  0  0  0
    7.4876   37.1636   14.3447 H   0  0  0  0  0  0  0  0  0  0  0  0
   10.4603   34.9532   12.8685 H   0  0  0  0  0  0  0  0  0  0  0  0
    8.9713   35.6582   12.1016 H   0  0  0  0  0  0  0  0  0  0  0  0
   10.7878   40.2531   10.2179 H   0  0  0  0  0  0  0  0  0  0  0  0
   11.8953   40.9383   11.5139 H   0  0  0  0  0  0  0  0  0  0  0  0
   13.5621   38.0830   11.0887 H   0  0  0  0  0  0  0  0  0  0  0  0
   15.5640   37.6916    9.6481 H   0  0  0  0  0  0  0  0  0  0  0  0
   16.0439   39.2177    7.7224 H   0  0  0  0  0  0  0  0  0  0  0  0
   15.4754   41.1358    6.3705 H   0  0  0  0  0  0  0  0  0  0  0  0
   13.9700   43.0701    5.8503 H   0  0  0  0  0  0  0  0  0  0  0  0
   11.9476   43.4951    7.2689 H   0  0  0  0  0  0  0  0  0  0  0  0
   11.4319   41.9992    9.2046 H   0  0  0  0  0  0  0  0  0  0  0  0
   13.1591   40.6020   13.2954 H   0  0  0  0  0  0  0  0  0  0  0  0
   13.7921   40.0192   15.6519 H   0  0  0  0  0  0  0  0  0  0  0  0
   11.2359   36.5211   15.4679 H   0  0  0  0  0  0  0  0  0  0  0  0
  1  2  1  0
  2  3  1  0
  3  4  1  0
  4  5  2  0
  4  6  1  0
  6  7  1  0
  6  8  1  0
  8  9  1  0
  9 10  2  0
 10 11  1  0
 11 12  2  0
 11 13  1  0
 10 14  1  0
 14 15  1  0
 15 16  1  0
 16 17  2  0
 17 18  1  0
 18 19  2  0
 19 20  1  0
 20 21  2  0
 21 22  1  0
 22 23  2  0
 23 24  1  0
 24 25  2  0
 14 26  1  0
 26 27  2  0
 27 28  1  0
 28 29  2  0
 29 30  1  0
 29 31  1  0
 31 32  2  0
 32  9  1  0
 25 16  1  0
 32 26  1  0
 25 20  1  0
  1 33  1  0
  1 34  1  0
  1 35  1  0
  2 36  1  0
  2 37  1  0
  7 38  1  0
  7 39  1  0
  7 40  1  0
  8 41  1  0
  8 42  1  0
 15 43  1  0
 15 44  1  0
 17 45  1  0
 18 46  1  0
 19 47  1  0
 21 48  1  0
 22 49  1  0
 23 50  1  0
 24 51  1  0
 27 52  1  0
 28 53  1  0
 31 54  1  0
M  CHG  1  13  -1
M  END
>  <meeko>  (209) 
{"free_energy": -5.36, "intermolecular_energy": -7.75, "internal_energy": -1.73, "cluster_size": 37, "cluster_id": 102, "rank_in_cluster": 11}

$$$$

     RDKit          3D

 54 57  0  0  0  0  0  0  0  0999 V2000
   12.1040   34.5300   15.8670 C   0  0  0  0  0  0  0  0  0  0  0  0
   10.9060   33.6040   15.6400 C   0  0  0  0  0  0  0  0  0  0  0  0
    9.7700   34.1420   16.2970 O   0  0  0  0  0  0  0  0  0  0  0  0
    8.6370   34.3810   15.6020 C   0  0  0  0  0  0  0  0  0  0  0  0
    8.3770   33.8440   14.5240 O   0  0  0  0  0  0  0  0  0  0  0  0
    7.8280   35.3000   16.2830 N   0  0  0  0  0  0  0  0  0  0  0  0
    6.7120   34.8750   17.1350 C   0  0  0  0  0  0  0  0  0  0  0  0
    8.0410   36.7470   16.1510 C   0  0  0  0  0  0  0  0  0  0  0  0
    9.2580   37.0720   15.3160 C   0  0  0  0  0  0  0  0  0  0  0  0
   10.4410   37.6740   15.7060 C   0  0  0  0  0  0  0  0  0  0  0  0
   10.8710   38.1430   17.0600 C   0  0  0  0  0  0  0  0  0  0  0  0
   11.5040   37.3550   17.7950 O   0  0  0  0  0  0  0  0  0  0  0  0
   10.5870   39.2950   17.4550 O   0  0  0  0  0  1  0  0  0  0  0  0
   11.2650   37.8330   14.5720 N   0  0  0  0  0  0  0  0  0  0  0  0
   12.6110   38.4100   14.4970 C   0  0  0  0  0  0  0  0  0  0  0  0
   12.7570   39.5800   13.5150 C   0  0  0  0  0  0  0  0  0  0  0  0
   11.8970   40.7040   13.5910 C   0  0  0  0  0  0  0  0  0  0  0  0
   12.0280   41.7770   12.6930 C   0  0  0  0  0  0  0  0  0  0  0  0
   13.0210   41.7450   11.7000 C   0  0  0  0  0  0  0  0  0  0  0  0
   13.8860   40.6390   11.6030 C   0  0  0  0  0  0  0  0  0  0  0  0
   14.8770   40.6240   10.5990 C   0  0  0  0  0  0  0  0  0  0  0  0
   15.7510   39.5290   10.4830 C   0  0  0  0  0  0  0  0  0  0  0  0
   15.6370   38.4460   11.3730 C   0  0  0  0  0  0  0  0  0  0  0  0
   14.6500   38.4540   12.3770 C   0  0  0  0  0  0  0  0  0  0  0  0
   13.7600   39.5500   12.5080 C   0  0  0  0  0  0  0  0  0  0  0  0
   10.6090   37.3320   13.4550 C   0  0  0  0  0  0  0  0  0  0  0  0
   10.9830   37.2630   12.0970 C   0  0  0  0  0  0  0  0  0  0  0  0
   10.1120   36.6850   11.1590 C   0  0  0  0  0  0  0  0  0  0  0  0
    8.8720   36.1760   11.5810 C   0  0  0  0  0  0  0  0  0  0  0  0
    8.0290   35.6140   10.6820 F   0  0  0  0  0  0  0  0  0  0  0  0
    8.5030   36.2520   12.9380 C   0  0  0  0  0  0  0  0  0  0  0  0
    9.3570   36.8350   13.9060 C   0  0  0  0  0  0  0  0  0  0  0  0
   12.2692   34.6577   16.9470 H   0  0  0  0  0  0  0  0  0  0  0  0
   13.0010   34.0882   15.4085 H   0  0  0  0  0  0  0  0  0  0  0  0
   11.9025   35.5094   15.4085 H   0  0  0  0  0  0  0  0  0  0  0  0
   10.7032   33.5222   14.5620 H   0  0  0  0  0  0  0  0  0  0  0  0
   11.1286   32.6056   16.0445 H   0  0  0  0  0  0  0  0  0  0  0  0
    6.9960   34.9831   18.1922 H   0  0  0  0  0  0  0  0  0  0  0  0
    5.8320   35.5009   16.9258 H   0  0  0  0  0  0  0  0  0  0  0  0
    6.4712   33.8222   16.9258 H   0  0  0  0  0  0  0  0  0  0  0  0
    7.1555   37.1933   15.6749 H   0  0  0  0  0  0  0  0  0  0  0  0
    8.2039   37.1572   17.1586 H   0  0  0  0  0  0  0  0  0  0  0  0
   12.8856   38.7690   15.4999 H   0  0  0  0  0  0  0  0  0  0  0  0
   13.2697   37.6109   14.1260 H   0  0  0  0  0  0  0  0  0  0  0  0
   11.1154   40.7370   14.3643 H   0  0  0  0  0  0  0  0  0  0  0  0
   11.3528   42.6421   12.7677 H   0  0  0  0  0  0  0  0  0  0  0  0
   13.1227   42.5853   10.9974 H   0  0  0  0  0  0  0  0  0  0  0  0
   14.9662   41.4722    9.9044 H   0  0  0  0  0  0  0  0  0  0  0  0
   16.5219   39.5193    9.6983 H   0  0  0  0  0  0  0  0  0  0  0  0
   16.3215   37.5895   11.2844 H   0  0  0  0  0  0  0  0  0  0  0  0
   14.5685   37.6012   13.0669 H   0  0  0  0  0  0  0  0  0  0  0  0
   11.9557   37.6614   11.7728 H   0  0  0  0  0  0  0  0  0  0  0  0
   10.3992   36.6310   10.0985 H   0  0  0  0  0  0  0  0  0  0  0  0
    7.5292   35.8493   13.2534 H   0  0  0  0  0  0  0  0  0  0  0  0
  1  2  1  0
  2  3  1  0
  3  4  1  0
  4  5  2  0
  4  6  1  0
  6  7  1  0
  6  8  1  0
  8  9  1  0
  9 10  2  0
 10 11  1  0
 11 12  2  0
 11 13  1  0
 10 14  1  0
 14 15  1  0
 15 16  1  0
 16 17  2  0
 17 18  1  0
 18 19  2  0
 19 20  1  0
 20 21  2  0
 21 22  1  0
 22 23  2  0
 23 24  1  0
 24 25  2  0
 14 26  1  0
 26 27  2  0
 27 28  1  0
 28 29  2  0
 29 30  1  0
 29 31  1  0
 31 32  2  0
 32  9  1  0
 25 16  1  0
 32 26  1  0
 25 20  1  0
  1 33  1  0
  1 34  1  0
  1 35  1  0
  2 36  1  0
  2 37  1  0
  7 38  1  0
  7 39  1  0
  7 40  1  0
  8 41  1  0
  8 42  1  0
 15 43  1  0
 15 44  1  0
 17 45  1  0
 18 46  1  0
 19 47  1  0
 21 48  1  0
 22 49  1  0
 23 50  1  0
 24 51  1  0
 27 52  1  0
 28 53  1  0
 31 54  1  0
M  CHG  1  13  -1
M  END
>  <meeko>  (210) 
{"free_energy": -4.61, "intermolecular_energy": -7.0, "internal_energy": -2.26, "cluster_size": 84, "cluster_id": 58, "rank_in_cluster": 75}

$$$$

     RDKit          3D

 54 57  0  0  0  0  0  0  0  0999 V2000
   15.4580   41.8370   10.0600 C   0  0  0  0  0  0  0  0  0  0  0  0
   14.6130   41.2390    8.9330 C   0  0  0  0  0  0  0  0  0  0  0  0
   13.3880   40.7640    9.4680 O   0  0  0  0  0  0  0  0  0  0  0  0
   13.0190   39.4790    9.2780 C   0  0  0  0  0  0  0  0  0  0  0  0
   12.2570   39.1190    8.3800 O   0  0  0  0  0  0  0  0  0  0  0  0
   13.6270   38.6480   10.2280 N   0  0  0  0  0  0  0  0  0  0  0  0
   14.1740   37.3330    9.8790 C   0  0  0  0  0  0  0  0  0  0  0  0
   13.7200   39.0460   11.6390 C   0  0  0  0  0  0  0  0  0  0  0  0
   12.5500   38.5470   12.4530 C   0  0  0  0  0  0  0  0  0  0  0  0
   12.4130   38.4880   13.8290 C   0  0  0  0  0  0  0  0  0  0  0  0
   13.3580   38.9280   14.9010 C   0  0  0  0  0  0  0  0  0  0  0  0
   14.1790   38.1010   15.3550 O   0  0  0  0  0  0  0  0  0  0  0  0
   13.3160   40.0950   15.3480 O   0  0  0  0  0  1  0  0  0  0  0  0
   11.1730   37.8880   14.1370 N   0  0  0  0  0  0  0  0  0  0  0  0
   10.5910   37.6250   15.4560 C   0  0  0  0  0  0  0  0  0  0  0  0
   10.1010   36.1870   15.6690 C   0  0  0  0  0  0  0  0  0  0  0  0
   10.9030   35.0820   15.2880 C   0  0  0  0  0  0  0  0  0  0  0  0
   10.4570   33.7630   15.4810 C   0  0  0  0  0  0  0  0  0  0  0  0
    9.2000   33.5240   16.0590 C   0  0  0  0  0  0  0  0  0  0  0  0
    8.3840   34.6040   16.4440 C   0  0  0  0  0  0  0  0  0  0  0  0
    7.1240   34.3450   17.0220 C   0  0  0  0  0  0  0  0  0  0  0  0
    6.2920   35.4090   17.4150 C   0  0  0  0  0  0  0  0  0  0  0  0
    6.7200   36.7360   17.2310 C   0  0  0  0  0  0  0  0  0  0  0  0
    7.9770   37.0010   16.6540 C   0  0  0  0  0  0  0  0  0  0  0  0
    8.8280   35.9410   16.2530 C   0  0  0  0  0  0  0  0  0  0  0  0
   10.5160   37.5630   12.9570 C   0  0  0  0  0  0  0  0  0  0  0  0
    9.2730   36.9430   12.7130 C   0  0  0  0  0  0  0  0  0  0  0  0
    8.8380   36.7390   11.3930 C   0  0  0  0  0  0  0  0  0  0  0  0
    9.6470   37.1570   10.3220 C   0  0  0  0  0  0  0  0  0  0  0  0
    9.2320   36.9660    9.0470 F   0  0  0  0  0  0  0  0  0  0  0  0
   10.8880   37.7720   10.5730 C   0  0  0  0  0  0  0  0  0  0  0  0
   11.3560   37.9840   11.8920 C   0  0  0  0  0  0  0  0  0  0  0  0
   15.0370   41.5391   11.0316 H   0  0  0  0  0  0  0  0  0  0  0  0
   16.4910   41.4678    9.9793 H   0  0  0  0  0  0  0  0  0  0  0  0
   15.4534   42.9340    9.9793 H   0  0  0  0  0  0  0  0  0  0  0  0
   14.4090   42.0115    8.1769 H   0  0  0  0  0  0  0  0  0  0  0  0
   15.1586   40.4064    8.4649 H   0  0  0  0  0  0  0  0  0  0  0  0
   14.4056   36.7763   10.7990 H   0  0  0  0  0  0  0  0  0  0  0  0
   13.4341   36.7732    9.2881 H   0  0  0  0  0  0  0  0  0  0  0  0
   15.0926   37.4631    9.2881 H   0  0  0  0  0  0  0  0  0  0  0  0
   14.6475   38.6333   12.0627 H   0  0  0  0  0  0  0  0  0  0  0  0
   13.7143   40.1452   11.6799 H   0  0  0  0  0  0  0  0  0  0  0  0
   11.3555   37.8420   16.2166 H   0  0  0  0  0  0  0  0  0  0  0  0
    9.7030   38.2693   15.5362 H   0  0  0  0  0  0  0  0  0  0  0  0
   11.8893   35.2594   14.8344 H   0  0  0  0  0  0  0  0  0  0  0  0
   11.0930   32.9178   15.1791 H   0  0  0  0  0  0  0  0  0  0  0  0
    8.8526   32.4914   16.2111 H   0  0  0  0  0  0  0  0  0  0  0  0
    6.7904   33.3067   17.1661 H   0  0  0  0  0  0  0  0  0  0  0  0
    5.3094   35.2037   17.8649 H   0  0  0  0  0  0  0  0  0  0  0  0
    6.0711   37.5692   17.5386 H   0  0  0  0  0  0  0  0  0  0  0  0
    8.3020   38.0424   16.5130 H   0  0  0  0  0  0  0  0  0  0  0  0
    8.6445   36.6194   13.5558 H   0  0  0  0  0  0  0  0  0  0  0  0
    7.8696   36.2548   11.1984 H   0  0  0  0  0  0  0  0  0  0  0  0
   11.5086   38.0954    9.7243 H   0  0  0  0  0  0  0  0  0  0  0  0
  1  2  1  0
  2  3  1  0
  3  4  1  0
  4  5  2  0
  4  6  1  0
  6  7  1  0
  6  8  1  0
  8  9  1  0
  9 10  2  0
 10 11  1  0
 11 12  2  0
 11 13  1  0
 10 14  1  0
 14 15  1  0
 15 16  1  0
 16 17  2  0
 17 18  1  0
 18 19  2  0
 19 20  1  0
 20 21  2  0
 21 22  1  0
 22 23  2  0
 23 24  1  0
 24 25  2  0
 14 26  1  0
 26 27  2  0
 27 28  1  0
 28 29  2  0
 29 30  1  0
 29 31  1  0
 31 32  2  0
 32  9  1  0
 25 16  1  0
 32 26  1  0
 25 20  1  0
  1 33  1  0
  1 34  1  0
  1 35  1  0
  2 36  1  0
  2 37  1  0
  7 38  1  0
  7 39  1  0
  7 40  1  0
  8 41  1  0
  8 42  1  0
 15 43  1  0
 15 44  1  0
 17 45  1  0
 18 46  1  0
 19 47  1  0
 21 48  1  0
 22 49  1  0
 23 50  1  0
 24 51  1  0
 27 52  1  0
 28 53  1  0
 31 54  1  0
M  CHG  1  13  -1
M  END
>  <meeko>  (211) 
{"free_energy": -6.28, "intermolecular_energy": -8.67, "internal_energy": -1.64, "cluster_size": 191, "cluster_id": 13, "rank_in_cluster": 20}

$$$$

     RDKit          3D

 54 57  0  0  0  0  0  0  0  0999 V2000
    9.7940   41.7600   15.2200 C   0  0  0  0  0  0  0  0  0  0  0  0
   10.9150   41.7680   14.1770 C   0  0  0  0  0  0  0  0  0  0  0  0
   11.9650   42.6090   14.6270 O   0  0  0  0  0  0  0  0  0  0  0  0
   13.2160   42.1190   14.7550 C   0  0  0  0  0  0  0  0  0  0  0  0
   14.0100   42.5040   15.6150 O   0  0  0  0  0  0  0  0  0  0  0  0
   13.4580   41.1320   13.7910 N   0  0  0  0  0  0  0  0  0  0  0  0
   13.5700   41.4470   12.3620 C   0  0  0  0  0  0  0  0  0  0  0  0
   13.5850   39.7170   14.1650 C   0  0  0  0  0  0  0  0  0  0  0  0
   12.6080   38.8390   13.4180 C   0  0  0  0  0  0  0  0  0  0  0  0
   12.6470   38.4280   12.0970 C   0  0  0  0  0  0  0  0  0  0  0  0
   13.6720   38.7020   11.0430 C   0  0  0  0  0  0  0  0  0  0  0  0
   14.8740   38.4730   11.3000 O   0  0  0  0  0  0  0  0  0  0  0  0
   13.3350   39.1690    9.9330 O   0  0  0  0  0  1  0  0  0  0  0  0
   11.4890   37.6690   11.8230 N   0  0  0  0  0  0  0  0  0  0  0  0
   11.1010   37.0220   10.5670 C   0  0  0  0  0  0  0  0  0  0  0  0
    9.9330   37.6910    9.8300 C   0  0  0  0  0  0  0  0  0  0  0  0
    9.8070   39.1030    9.7990 C   0  0  0  0  0  0  0  0  0  0  0  0
    8.7400   39.7200    9.1250 C   0  0  0  0  0  0  0  0  0  0  0  0
    7.7750   38.9370    8.4710 C   0  0  0  0  0  0  0  0  0  0  0  0
    7.8770   37.5330    8.4880 C   0  0  0  0  0  0  0  0  0  0  0  0
    6.8990   36.7620    7.8260 C   0  0  0  0  0  0  0  0  0  0  0  0
    6.9810   35.3580    7.8310 C   0  0  0  0  0  0  0  0  0  0  0  0
    8.0420   34.7210    8.4980 C   0  0  0  0  0  0  0  0  0  0  0  0
    9.0210   35.4850    9.1620 C   0  0  0  0  0  0  0  0  0  0  0  0
    8.9550   36.9010    9.1670 C   0  0  0  0  0  0  0  0  0  0  0  0
   10.7090   37.5940   12.9700 C   0  0  0  0  0  0  0  0  0  0  0  0
    9.4670   36.9770   13.2230 C   0  0  0  0  0  0  0  0  0  0  0  0
    8.8950   37.0510   14.5040 C   0  0  0  0  0  0  0  0  0  0  0  0
    9.5670   37.7400   15.5280 C   0  0  0  0  0  0  0  0  0  0  0  0
    9.0240   37.8120   16.7660 F   0  0  0  0  0  0  0  0  0  0  0  0
   10.8060   38.3580   15.2660 C   0  0  0  0  0  0  0  0  0  0  0  0
   11.4030   38.3060   13.9840 C   0  0  0  0  0  0  0  0  0  0  0  0
   10.2320   41.7631   16.2290 H   0  0  0  0  0  0  0  0  0  0  0  0
    9.1659   42.6537   15.0901 H   0  0  0  0  0  0  0  0  0  0  0  0
    9.1788   40.8574   15.0901 H   0  0  0  0  0  0  0  0  0  0  0  0
   11.2962   40.7455   14.0388 H   0  0  0  0  0  0  0  0  0  0  0  0
   10.5257   42.1433   13.2191 H   0  0  0  0  0  0  0  0  0  0  0  0
   13.9363   42.4772   12.2412 H   0  0  0  0  0  0  0  0  0  0  0  0
   14.2751   40.7491   11.8868 H   0  0  0  0  0  0  0  0  0  0  0  0
   12.5826   41.3509   11.8868 H   0  0  0  0  0  0  0  0  0  0  0  0
   14.6077   39.3812   13.9386 H   0  0  0  0  0  0  0  0  0  0  0  0
   13.3637   39.6305   15.2390 H   0  0  0  0  0  0  0  0  0  0  0  0
   11.9738   37.0243    9.8975 H   0  0  0  0  0  0  0  0  0  0  0  0
   10.7594   36.0109   10.8333 H   0  0  0  0  0  0  0  0  0  0  0  0
   10.5563   39.7249   10.3106 H   0  0  0  0  0  0  0  0  0  0  0  0
    8.6604   40.8170    9.1095 H   0  0  0  0  0  0  0  0  0  0  0  0
    6.9389   39.4210    7.9451 H   0  0  0  0  0  0  0  0  0  0  0  0
    6.0691   37.2606    7.3039 H   0  0  0  0  0  0  0  0  0  0  0  0
    6.2165   34.7595    7.3140 H   0  0  0  0  0  0  0  0  0  0  0  0
    8.1076   33.6230    8.5012 H   0  0  0  0  0  0  0  0  0  0  0  0
    9.8463   34.9773    9.6827 H   0  0  0  0  0  0  0  0  0  0  0  0
    8.9461   36.4380   12.4179 H   0  0  0  0  0  0  0  0  0  0  0  0
    7.9254   36.5718   14.7046 H   0  0  0  0  0  0  0  0  0  0  0  0
   11.3213   38.8934   16.0771 H   0  0  0  0  0  0  0  0  0  0  0  0
  1  2  1  0
  2  3  1  0
  3  4  1  0
  4  5  2  0
  4  6  1  0
  6  7  1  0
  6  8  1  0
  8  9  1  0
  9 10  2  0
 10 11  1  0
 11 12  2  0
 11 13  1  0
 10 14  1  0
 14 15  1  0
 15 16  1  0
 16 17  2  0
 17 18  1  0
 18 19  2  0
 19 20  1  0
 20 21  2  0
 21 22  1  0
 22 23  2  0
 23 24  1  0
 24 25  2  0
 14 26  1  0
 26 27  2  0
 27 28  1  0
 28 29  2  0
 29 30  1  0
 29 31  1  0
 31 32  2  0
 32  9  1  0
 25 16  1  0
 32 26  1  0
 25 20  1  0
  1 33  1  0
  1 34  1  0
  1 35  1  0
  2 36  1  0
  2 37  1  0
  7 38  1  0
  7 39  1  0
  7 40  1  0
  8 41  1  0
  8 42  1  0
 15 43  1  0
 15 44  1  0
 17 45  1  0
 18 46  1  0
 19 47  1  0
 21 48  1  0
 22 49  1  0
 23 50  1  0
 24 51  1  0
 27 52  1  0
 28 53  1  0
 31 54  1  0
M  CHG  1  13  -1
M  END
>  <meeko>  (212) 
{"free_energy": -5.26, "intermolecular_energy": -7.64, "internal_energy": -1.97, "cluster_size": 160, "cluster_id": 12, "rank_in_cluster": 130}

$$$$

     RDKit          3D

 54 57  0  0  0  0  0  0  0  0999 V2000
    9.6940   33.2250   15.5080 C   0  0  0  0  0  0  0  0  0  0  0  0
    9.0820   33.8810   16.7480 C   0  0  0  0  0  0  0  0  0  0  0  0
    7.7900   34.3710   16.4270 O   0  0  0  0  0  0  0  0  0  0  0  0
    6.9500   34.7600   17.4110 C   0  0  0  0  0  0  0  0  0  0  0  0
    6.3420   33.9690   18.1340 O   0  0  0  0  0  0  0  0  0  0  0  0
    6.8890   36.1570   17.4810 N   0  0  0  0  0  0  0  0  0  0  0  0
    6.1460   36.9560   16.5000 C   0  0  0  0  0  0  0  0  0  0  0  0
    7.5950   36.8990   18.5340 C   0  0  0  0  0  0  0  0  0  0  0  0
    8.5200   37.9520   17.9700 C   0  0  0  0  0  0  0  0  0  0  0  0
    8.7120   39.2550   18.3950 C   0  0  0  0  0  0  0  0  0  0  0  0
    8.0940   39.9830   19.5470 C   0  0  0  0  0  0  0  0  0  0  0  0
    6.9440   40.4540   19.4120 O   0  0  0  0  0  0  0  0  0  0  0  0
    8.7230   40.1340   20.6170 O   0  0  0  0  0  1  0  0  0  0  0  0
    9.6260   39.8870   17.5260 N   0  0  0  0  0  0  0  0  0  0  0  0
   10.1390   41.2580   17.5840 C   0  0  0  0  0  0  0  0  0  0  0  0
    9.1360   42.3410   17.1650 C   0  0  0  0  0  0  0  0  0  0  0  0
    8.4020   43.0670   18.1360 C   0  0  0  0  0  0  0  0  0  0  0  0
    7.4830   44.0590   17.7570 C   0  0  0  0  0  0  0  0  0  0  0  0
    7.2770   44.3430   16.3970 C   0  0  0  0  0  0  0  0  0  0  0  0
    7.9920   43.6340   15.4130 C   0  0  0  0  0  0  0  0  0  0  0  0
    7.7720   43.9320   14.0520 C   0  0  0  0  0  0  0  0  0  0  0  0
    8.4750   43.2370   13.0520 C   0  0  0  0  0  0  0  0  0  0  0  0
    9.4010   42.2410   13.4110 C   0  0  0  0  0  0  0  0  0  0  0  0
    9.6240   41.9390   14.7680 C   0  0  0  0  0  0  0  0  0  0  0  0
    8.9250   42.6300   15.7890 C   0  0  0  0  0  0  0  0  0  0  0  0
   10.0190   38.9880   16.5430 C   0  0  0  0  0  0  0  0  0  0  0  0
   10.8910   39.1200   15.4430 C   0  0  0  0  0  0  0  0  0  0  0  0
   11.1200   38.0240   14.5940 C   0  0  0  0  0  0  0  0  0  0  0  0
   10.4780   36.8000   14.8490 C   0  0  0  0  0  0  0  0  0  0  0  0
   10.6970   35.7380   14.0370 F   0  0  0  0  0  0  0  0  0  0  0  0
    9.6050   36.6770   15.9470 C   0  0  0  0  0  0  0  0  0  0  0  0
    9.3490   37.7650   16.8160 C   0  0  0  0  0  0  0  0  0  0  0  0
   10.4138   32.4535   15.8189 H   0  0  0  0  0  0  0  0  0  0  0  0
    8.8973   32.7624   14.9070 H   0  0  0  0  0  0  0  0  0  0  0  0
   10.2108   33.9877   14.9070 H   0  0  0  0  0  0  0  0  0  0  0  0
    9.0037   33.1388   17.5561 H   0  0  0  0  0  0  0  0  0  0  0  0
    9.7209   34.7129   17.0793 H   0  0  0  0  0  0  0  0  0  0  0  0
    5.4881   37.6634   17.0261 H   0  0  0  0  0  0  0  0  0  0  0  0
    6.8541   37.5134   15.8692 H   0  0  0  0  0  0  0  0  0  0  0  0
    5.5387   36.2902   15.8692 H   0  0  0  0  0  0  0  0  0  0  0  0
    6.8522   37.3897   19.1801 H   0  0  0  0  0  0  0  0  0  0  0  0
    8.2068   36.1810   19.0999 H   0  0  0  0  0  0  0  0  0  0  0  0
   10.4507   41.4628   18.6189 H   0  0  0  0  0  0  0  0  0  0  0  0
   10.9673   41.3084   16.8619 H   0  0  0  0  0  0  0  0  0  0  0  0
    8.5546   42.8500   19.2035 H   0  0  0  0  0  0  0  0  0  0  0  0
    6.9244   44.6136   18.5254 H   0  0  0  0  0  0  0  0  0  0  0  0
    6.5567   45.1197   16.1005 H   0  0  0  0  0  0  0  0  0  0  0  0
    7.0477   44.7111   13.7718 H   0  0  0  0  0  0  0  0  0  0  0  0
    8.3012   43.4717   11.9915 H   0  0  0  0  0  0  0  0  0  0  0  0
    9.9522   41.6968   12.6299 H   0  0  0  0  0  0  0  0  0  0  0  0
   10.3493   41.1576   15.0389 H   0  0  0  0  0  0  0  0  0  0  0  0
   11.3916   40.0802   15.2496 H   0  0  0  0  0  0  0  0  0  0  0  0
   11.7985   38.1235   13.7339 H   0  0  0  0  0  0  0  0  0  0  0  0
    9.1101   35.7126   16.1340 H   0  0  0  0  0  0  0  0  0  0  0  0
  1  2  1  0
  2  3  1  0
  3  4  1  0
  4  5  2  0
  4  6  1  0
  6  7  1  0
  6  8  1  0
  8  9  1  0
  9 10  2  0
 10 11  1  0
 11 12  2  0
 11 13  1  0
 10 14  1  0
 14 15  1  0
 15 16  1  0
 16 17  2  0
 17 18  1  0
 18 19  2  0
 19 20  1  0
 20 21  2  0
 21 22  1  0
 22 23  2  0
 23 24  1  0
 24 25  2  0
 14 26  1  0
 26 27  2  0
 27 28  1  0
 28 29  2  0
 29 30  1  0
 29 31  1  0
 31 32  2  0
 32  9  1  0
 25 16  1  0
 32 26  1  0
 25 20  1  0
  1 33  1  0
  1 34  1  0
  1 35  1  0
  2 36  1  0
  2 37  1  0
  7 38  1  0
  7 39  1  0
  7 40  1  0
  8 41  1  0
  8 42  1  0
 15 43  1  0
 15 44  1  0
 17 45  1  0
 18 46  1  0
 19 47  1  0
 21 48  1  0
 22 49  1  0
 23 50  1  0
 24 51  1  0
 27 52  1  0
 28 53  1  0
 31 54  1  0
M  CHG  1  13  -1
M  END
>  <meeko>  (213) 
{"free_energy": -4.76, "intermolecular_energy": -7.15, "internal_energy": -1.95, "cluster_size": 1, "cluster_id": 213, "rank_in_cluster": 1}

$$$$

     RDKit          3D

 54 57  0  0  0  0  0  0  0  0999 V2000
   16.6450   36.4390   19.2480 C   0  0  0  0  0  0  0  0  0  0  0  0
   15.6180   35.4760   19.8490 C   0  0  0  0  0  0  0  0  0  0  0  0
   14.3440   35.7400   19.2840 O   0  0  0  0  0  0  0  0  0  0  0  0
   14.1330   35.5370   17.9660 C   0  0  0  0  0  0  0  0  0  0  0  0
   14.6900   34.6480   17.3190 O   0  0  0  0  0  0  0  0  0  0  0  0
   13.2050   36.4610   17.4690 N   0  0  0  0  0  0  0  0  0  0  0  0
   13.0350   37.7920   18.0630 C   0  0  0  0  0  0  0  0  0  0  0  0
   12.3300   36.1290   16.3370 C   0  0  0  0  0  0  0  0  0  0  0  0
   11.8950   37.3560   15.5710 C   0  0  0  0  0  0  0  0  0  0  0  0
   10.6170   37.7390   15.2010 C   0  0  0  0  0  0  0  0  0  0  0  0
    9.3050   37.0750   15.4780 C   0  0  0  0  0  0  0  0  0  0  0  0
    8.5060   37.6290   16.2630 O   0  0  0  0  0  0  0  0  0  0  0  0
    9.0220   35.9780   14.9490 O   0  0  0  0  0  1  0  0  0  0  0  0
   10.7000   38.9260   14.4420 N   0  0  0  0  0  0  0  0  0  0  0  0
    9.6100   39.7040   13.8470 C   0  0  0  0  0  0  0  0  0  0  0  0
    9.6330   39.7780   12.3140 C   0  0  0  0  0  0  0  0  0  0  0  0
    9.8660   41.0090   11.6510 C   0  0  0  0  0  0  0  0  0  0  0  0
    9.8880   41.0820   10.2470 C   0  0  0  0  0  0  0  0  0  0  0  0
    9.6750   39.9250    9.4810 C   0  0  0  0  0  0  0  0  0  0  0  0
    9.4390   38.6910   10.1160 C   0  0  0  0  0  0  0  0  0  0  0  0
    9.2270   37.5400    9.3300 C   0  0  0  0  0  0  0  0  0  0  0  0
    8.9890   36.2970    9.9430 C   0  0  0  0  0  0  0  0  0  0  0  0
    8.9640   36.2030   11.3460 C   0  0  0  0  0  0  0  0  0  0  0  0
    9.1750   37.3490   12.1370 C   0  0  0  0  0  0  0  0  0  0  0  0
    9.4160   38.6090   11.5350 C   0  0  0  0  0  0  0  0  0  0  0  0
   12.0320   39.3020   14.3260 C   0  0  0  0  0  0  0  0  0  0  0  0
   12.6480   40.3870   13.6670 C   0  0  0  0  0  0  0  0  0  0  0  0
   14.0430   40.5370   13.7190 C   0  0  0  0  0  0  0  0  0  0  0  0
   14.8180   39.6040   14.4300 C   0  0  0  0  0  0  0  0  0  0  0  0
   16.1640   39.7450   14.4870 F   0  0  0  0  0  0  0  0  0  0  0  0
   14.1970   38.5220   15.0820 C   0  0  0  0  0  0  0  0  0  0  0  0
   12.7930   38.3400   15.0420 C   0  0  0  0  0  0  0  0  0  0  0  0
   17.1880   36.9482   20.0579 H   0  0  0  0  0  0  0  0  0  0  0  0
   17.3568   35.8752   18.6271 H   0  0  0  0  0  0  0  0  0  0  0  0
   16.1281   37.1856   18.6271 H   0  0  0  0  0  0  0  0  0  0  0  0
   15.9114   34.4395   19.6265 H   0  0  0  0  0  0  0  0  0  0  0  0
   15.5746   35.6155   20.9393 H   0  0  0  0  0  0  0  0  0  0  0  0
   13.0457   37.7082   19.1597 H   0  0  0  0  0  0  0  0  0  0  0  0
   13.8568   38.4466   17.7373 H   0  0  0  0  0  0  0  0  0  0  0  0
   12.0750   38.2190   17.7373 H   0  0  0  0  0  0  0  0  0  0  0  0
   12.8735   35.4596   15.6540 H   0  0  0  0  0  0  0  0  0  0  0  0
   11.4276   35.6453   16.7391 H   0  0  0  0  0  0  0  0  0  0  0  0
    8.6572   39.2474   14.1531 H   0  0  0  0  0  0  0  0  0  0  0  0
    9.7334   40.7356   14.2083 H   0  0  0  0  0  0  0  0  0  0  0  0
   10.0321   41.9207   12.2437 H   0  0  0  0  0  0  0  0  0  0  0  0
   10.0720   42.0454    9.7490 H   0  0  0  0  0  0  0  0  0  0  0  0
    9.6925   39.9828    8.3827 H   0  0  0  0  0  0  0  0  0  0  0  0
    9.2478   37.6146    8.2327 H   0  0  0  0  0  0  0  0  0  0  0  0
    8.8229   35.4009    9.3270 H   0  0  0  0  0  0  0  0  0  0  0  0
    8.7790   35.2312   11.8271 H   0  0  0  0  0  0  0  0  0  0  0  0
    9.1525   37.2651   13.2336 H   0  0  0  0  0  0  0  0  0  0  0  0
   12.0361   41.1143   13.1133 H   0  0  0  0  0  0  0  0  0  0  0  0
   14.5274   41.3807   13.2057 H   0  0  0  0  0  0  0  0  0  0  0  0
   14.8166   37.8010   15.6355 H   0  0  0  0  0  0  0  0  0  0  0  0
  1  2  1  0
  2  3  1  0
  3  4  1  0
  4  5  2  0
  4  6  1  0
  6  7  1  0
  6  8  1  0
  8  9  1  0
  9 10  2  0
 10 11  1  0
 11 12  2  0
 11 13  1  0
 10 14  1  0
 14 15  1  0
 15 16  1  0
 16 17  2  0
 17 18  1  0
 18 19  2  0
 19 20  1  0
 20 21  2  0
 21 22  1  0
 22 23  2  0
 23 24  1  0
 24 25  2  0
 14 26  1  0
 26 27  2  0
 27 28  1  0
 28 29  2  0
 29 30  1  0
 29 31  1  0
 31 32  2  0
 32  9  1  0
 25 16  1  0
 32 26  1  0
 25 20  1  0
  1 33  1  0
  1 34  1  0
  1 35  1  0
  2 36  1  0
  2 37  1  0
  7 38  1  0
  7 39  1  0
  7 40  1  0
  8 41  1  0
  8 42  1  0
 15 43  1  0
 15 44  1  0
 17 45  1  0
 18 46  1  0
 19 47  1  0
 21 48  1  0
 22 49  1  0
 23 50  1  0
 24 51  1  0
 27 52  1  0
 28 53  1  0
 31 54  1  0
M  CHG  1  13  -1
M  END
>  <meeko>  (214) 
{"free_energy": -4.94, "intermolecular_energy": -7.32, "internal_energy": -1.87, "cluster_size": 30, "cluster_id": 79, "rank_in_cluster": 15}

$$$$

     RDKit          3D

 54 57  0  0  0  0  0  0  0  0999 V2000
   12.5060   37.8940   10.8020 C   0  0  0  0  0  0  0  0  0  0  0  0
   11.9300   38.4400    9.4930 C   0  0  0  0  0  0  0  0  0  0  0  0
   12.1740   39.8350    9.4220 O   0  0  0  0  0  0  0  0  0  0  0  0
   11.2560   40.7060    9.8940 C   0  0  0  0  0  0  0  0  0  0  0  0
   10.4800   41.3320    9.1690 O   0  0  0  0  0  0  0  0  0  0  0  0
   11.3200   40.7790   11.2910 N   0  0  0  0  0  0  0  0  0  0  0  0
   12.5840   40.9940   12.0050 C   0  0  0  0  0  0  0  0  0  0  0  0
   10.1170   40.6120   12.1180 C   0  0  0  0  0  0  0  0  0  0  0  0
    9.5870   39.1980   12.0790 C   0  0  0  0  0  0  0  0  0  0  0  0
    9.6020   38.2390   13.0770 C   0  0  0  0  0  0  0  0  0  0  0  0
   10.1080   38.3320   14.4820 C   0  0  0  0  0  0  0  0  0  0  0  0
    9.3020   38.6170   15.3930 O   0  0  0  0  0  0  0  0  0  0  0  0
   11.3190   38.1470   14.7350 O   0  0  0  0  0  1  0  0  0  0  0  0
    9.0530   37.0430   12.5660 N   0  0  0  0  0  0  0  0  0  0  0  0
    8.8550   35.7650   13.2550 C   0  0  0  0  0  0  0  0  0  0  0  0
    9.5480   35.6540   14.6190 C   0  0  0  0  0  0  0  0  0  0  0  0
   10.9260   35.3310   14.7090 C   0  0  0  0  0  0  0  0  0  0  0  0
   11.5650   35.2280   15.9560 C   0  0  0  0  0  0  0  0  0  0  0  0
   10.8380   35.4430   17.1380 C   0  0  0  0  0  0  0  0  0  0  0  0
    9.4690   35.7630   17.0750 C   0  0  0  0  0  0  0  0  0  0  0  0
    8.7540   35.9760   18.2730 C   0  0  0  0  0  0  0  0  0  0  0  0
    7.3860   36.2960   18.2340 C   0  0  0  0  0  0  0  0  0  0  0  0
    6.7280   36.4050   16.9960 C   0  0  0  0  0  0  0  0  0  0  0  0
    7.4350   36.1930   15.7970 C   0  0  0  0  0  0  0  0  0  0  0  0
    8.8150   35.8700   15.8180 C   0  0  0  0  0  0  0  0  0  0  0  0
    8.6880   37.2370   11.2400 C   0  0  0  0  0  0  0  0  0  0  0  0
    8.1180   36.3700   10.2860 C   0  0  0  0  0  0  0  0  0  0  0  0
    7.8380   36.8390    8.9910 C   0  0  0  0  0  0  0  0  0  0  0  0
    8.1260   38.1730    8.6560 C   0  0  0  0  0  0  0  0  0  0  0  0
    7.8550   38.6320    7.4110 F   0  0  0  0  0  0  0  0  0  0  0  0
    8.6990   39.0320    9.6130 C   0  0  0  0  0  0  0  0  0  0  0  0
    9.0000   38.5870   10.9230 C   0  0  0  0  0  0  0  0  0  0  0  0
   12.0003   38.3733   11.6532 H   0  0  0  0  0  0  0  0  0  0  0  0
   12.3479   36.8063   10.8467 H   0  0  0  0  0  0  0  0  0  0  0  0
   13.5837   38.1100   10.8467 H   0  0  0  0  0  0  0  0  0  0  0  0
   12.4125   37.9383    8.6412 H   0  0  0  0  0  0  0  0  0  0  0  0
   10.8467   38.2522    9.4593 H   0  0  0  0  0  0  0  0  0  0  0  0
   12.4024   40.9631   13.0895 H   0  0  0  0  0  0  0  0  0  0  0  0
   13.2991   40.2046   11.7304 H   0  0  0  0  0  0  0  0  0  0  0  0
   12.9979   41.9754   11.7304 H   0  0  0  0  0  0  0  0  0  0  0  0
   10.3646   40.8685   13.1586 H   0  0  0  0  0  0  0  0  0  0  0  0
    9.3370   41.2752   11.7157 H   0  0  0  0  0  0  0  0  0  0  0  0
    7.7750   35.6225   13.4075 H   0  0  0  0  0  0  0  0  0  0  0  0
    9.3089   34.9948   12.6141 H   0  0  0  0  0  0  0  0  0  0  0  0
   11.5032   35.1585   13.7886 H   0  0  0  0  0  0  0  0  0  0  0  0
   12.6352   34.9788   16.0064 H   0  0  0  0  0  0  0  0  0  0  0  0
   11.3389   35.3612   18.1139 H   0  0  0  0  0  0  0  0  0  0  0  0
    9.2694   35.8912   19.2411 H   0  0  0  0  0  0  0  0  0  0  0  0
    6.8314   36.4608   19.1696 H   0  0  0  0  0  0  0  0  0  0  0  0
    5.6576   36.6567   16.9642 H   0  0  0  0  0  0  0  0  0  0  0  0
    6.9108   36.2789   14.8337 H   0  0  0  0  0  0  0  0  0  0  0  0
    7.8925   35.3274   10.5547 H   0  0  0  0  0  0  0  0  0  0  0  0
    7.3954   36.1648    8.2430 H   0  0  0  0  0  0  0  0  0  0  0  0
    8.9181   40.0739    9.3364 H   0  0  0  0  0  0  0  0  0  0  0  0
  1  2  1  0
  2  3  1  0
  3  4  1  0
  4  5  2  0
  4  6  1  0
  6  7  1  0
  6  8  1  0
  8  9  1  0
  9 10  2  0
 10 11  1  0
 11 12  2  0
 11 13  1  0
 10 14  1  0
 14 15  1  0
 15 16  1  0
 16 17  2  0
 17 18  1  0
 18 19  2  0
 19 20  1  0
 20 21  2  0
 21 22  1  0
 22 23  2  0
 23 24  1  0
 24 25  2  0
 14 26  1  0
 26 27  2  0
 27 28  1  0
 28 29  2  0
 29 30  1  0
 29 31  1  0
 31 32  2  0
 32  9  1  0
 25 16  1  0
 32 26  1  0
 25 20  1  0
  1 33  1  0
  1 34  1  0
  1 35  1  0
  2 36  1  0
  2 37  1  0
  7 38  1  0
  7 39  1  0
  7 40  1  0
  8 41  1  0
  8 42  1  0
 15 43  1  0
 15 44  1  0
 17 45  1  0
 18 46  1  0
 19 47  1  0
 21 48  1  0
 22 49  1  0
 23 50  1  0
 24 51  1  0
 27 52  1  0
 28 53  1  0
 31 54  1  0
M  CHG  1  13  -1
M  END
>  <meeko>  (215) 
{"free_energy": -6.24, "intermolecular_energy": -8.63, "internal_energy": -1.59, "cluster_size": 253, "cluster_id": 8, "rank_in_cluster": 91}

$$$$

     RDKit          3D

 54 57  0  0  0  0  0  0  0  0999 V2000
   18.0630   38.0520   11.6970 C   0  0  0  0  0  0  0  0  0  0  0  0
   16.9490   39.1000   11.7570 C   0  0  0  0  0  0  0  0  0  0  0  0
   15.7520   38.4840   12.2050 O   0  0  0  0  0  0  0  0  0  0  0  0
   14.5960   39.1820   12.2170 C   0  0  0  0  0  0  0  0  0  0  0  0
   14.5350   40.3870   12.4680 O   0  0  0  0  0  0  0  0  0  0  0  0
   13.5160   38.3480   11.9030 N   0  0  0  0  0  0  0  0  0  0  0  0
   13.4290   37.6300   10.6270 C   0  0  0  0  0  0  0  0  0  0  0  0
   12.3920   38.1740   12.8330 C   0  0  0  0  0  0  0  0  0  0  0  0
   11.0690   38.5500   12.2090 C   0  0  0  0  0  0  0  0  0  0  0  0
   10.0390   37.7230   11.7980 C   0  0  0  0  0  0  0  0  0  0  0  0
    9.9200   36.2330   11.8810 C   0  0  0  0  0  0  0  0  0  0  0  0
   10.7340   35.5300   11.2450 O   0  0  0  0  0  0  0  0  0  0  0  0
    9.0120   35.7040   12.5580 O   0  0  0  0  0  1  0  0  0  0  0  0
    9.0260   38.5140   11.2140 N   0  0  0  0  0  0  0  0  0  0  0  0
    7.7460   38.0810   10.6480 C   0  0  0  0  0  0  0  0  0  0  0  0
    7.8590   37.1450    9.4370 C   0  0  0  0  0  0  0  0  0  0  0  0
    8.3370   35.8190    9.5860 C   0  0  0  0  0  0  0  0  0  0  0  0
    8.4430   34.9590    8.4800 C   0  0  0  0  0  0  0  0  0  0  0  0
    8.0750   35.4100    7.2020 C   0  0  0  0  0  0  0  0  0  0  0  0
    7.5990   36.7230    7.0270 C   0  0  0  0  0  0  0  0  0  0  0  0
    7.2340   37.1590    5.7370 C   0  0  0  0  0  0  0  0  0  0  0  0
    6.7570   38.4670    5.5390 C   0  0  0  0  0  0  0  0  0  0  0  0
    6.6430   39.3420    6.6330 C   0  0  0  0  0  0  0  0  0  0  0  0
    7.0060   38.9140    7.9240 C   0  0  0  0  0  0  0  0  0  0  0  0
    7.4880   37.5990    8.1420 C   0  0  0  0  0  0  0  0  0  0  0  0
    9.4090   39.8480   11.2520 C   0  0  0  0  0  0  0  0  0  0  0  0
    8.7740   41.0210   10.7950 C   0  0  0  0  0  0  0  0  0  0  0  0
    9.3940   42.2690   10.9740 C   0  0  0  0  0  0  0  0  0  0  0  0
   10.6460   42.3400   11.6100 C   0  0  0  0  0  0  0  0  0  0  0  0
   11.2470   43.5400   11.7880 F   0  0  0  0  0  0  0  0  0  0  0  0
   11.2760   41.1640   12.0600 C   0  0  0  0  0  0  0  0  0  0  0  0
   10.6780   39.8910   11.8880 C   0  0  0  0  0  0  0  0  0  0  0  0
   18.3595   37.7731   12.7189 H   0  0  0  0  0  0  0  0  0  0  0  0
   17.6996   37.1607   11.1645 H   0  0  0  0  0  0  0  0  0  0  0  0
   18.9305   38.4690   11.1645 H   0  0  0  0  0  0  0  0  0  0  0  0
   17.2344   39.9006   12.4553 H   0  0  0  0  0  0  0  0  0  0  0  0
   16.7914   39.5293   10.7565 H   0  0  0  0  0  0  0  0  0  0  0  0
   13.2987   36.5548   10.8194 H   0  0  0  0  0  0  0  0  0  0  0  0
   12.5699   38.0064   10.0523 H   0  0  0  0  0  0  0  0  0  0  0  0
   14.3531   37.7903   10.0523 H   0  0  0  0  0  0  0  0  0  0  0  0
   12.3498   37.1196   13.1437 H   0  0  0  0  0  0  0  0  0  0  0  0
   12.5601   38.8394   13.6927 H   0  0  0  0  0  0  0  0  0  0  0  0
    7.1846   37.5557   11.4347 H   0  0  0  0  0  0  0  0  0  0  0  0
    7.2436   38.9913   10.2888 H   0  0  0  0  0  0  0  0  0  0  0  0
    8.6295   35.4576   10.5829 H   0  0  0  0  0  0  0  0  0  0  0  0
    8.8143   33.9324    8.6152 H   0  0  0  0  0  0  0  0  0  0  0  0
    8.1589   34.7362    6.3365 H   0  0  0  0  0  0  0  0  0  0  0  0
    7.3227   36.4731    4.8816 H   0  0  0  0  0  0  0  0  0  0  0  0
    6.4740   38.8043    4.5310 H   0  0  0  0  0  0  0  0  0  0  0  0
    6.2688   40.3650    6.4798 H   0  0  0  0  0  0  0  0  0  0  0  0
    6.9146   39.6076    8.7729 H   0  0  0  0  0  0  0  0  0  0  0  0
    7.7942   40.9591   10.2988 H   0  0  0  0  0  0  0  0  0  0  0  0
    8.9022   43.1864   10.6182 H   0  0  0  0  0  0  0  0  0  0  0  0
   12.2550   41.2351   12.5565 H   0  0  0  0  0  0  0  0  0  0  0  0
  1  2  1  0
  2  3  1  0
  3  4  1  0
  4  5  2  0
  4  6  1  0
  6  7  1  0
  6  8  1  0
  8  9  1  0
  9 10  2  0
 10 11  1  0
 11 12  2  0
 11 13  1  0
 10 14  1  0
 14 15  1  0
 15 16  1  0
 16 17  2  0
 17 18  1  0
 18 19  2  0
 19 20  1  0
 20 21  2  0
 21 22  1  0
 22 23  2  0
 23 24  1  0
 24 25  2  0
 14 26  1  0
 26 27  2  0
 27 28  1  0
 28 29  2  0
 29 30  1  0
 29 31  1  0
 31 32  2  0
 32  9  1  0
 25 16  1  0
 32 26  1  0
 25 20  1  0
  1 33  1  0
  1 34  1  0
  1 35  1  0
  2 36  1  0
  2 37  1  0
  7 38  1  0
  7 39  1  0
  7 40  1  0
  8 41  1  0
  8 42  1  0
 15 43  1  0
 15 44  1  0
 17 45  1  0
 18 46  1  0
 19 47  1  0
 21 48  1  0
 22 49  1  0
 23 50  1  0
 24 51  1  0
 27 52  1  0
 28 53  1  0
 31 54  1  0
M  CHG  1  13  -1
M  END
>  <meeko>  (216) 
{"free_energy": -5.18, "intermolecular_energy": -7.57, "internal_energy": -1.46, "cluster_size": 417, "cluster_id": 2, "rank_in_cluster": 370}

$$$$

     RDKit          3D

 54 57  0  0  0  0  0  0  0  0999 V2000
    7.7060   39.2330    8.3040 C   0  0  0  0  0  0  0  0  0  0  0  0
    8.3410   40.1150    9.3810 C   0  0  0  0  0  0  0  0  0  0  0  0
    9.7040   40.3390    9.0580 O   0  0  0  0  0  0  0  0  0  0  0  0
   10.5270   40.9160    9.9600 C   0  0  0  0  0  0  0  0  0  0  0  0
   10.1940   41.8660   10.6710 O   0  0  0  0  0  0  0  0  0  0  0  0
   11.7760   40.2810    9.9620 N   0  0  0  0  0  0  0  0  0  0  0  0
   13.0330   41.0330   10.0360 C   0  0  0  0  0  0  0  0  0  0  0  0
   11.8880   38.8200    9.8600 C   0  0  0  0  0  0  0  0  0  0  0  0
   10.9300   38.1070   10.7850 C   0  0  0  0  0  0  0  0  0  0  0  0
   10.8910   38.1170   12.1690 C   0  0  0  0  0  0  0  0  0  0  0  0
   11.7550   38.8560   13.1420 C   0  0  0  0  0  0  0  0  0  0  0  0
   11.2830   39.8540   13.7260 O   0  0  0  0  0  0  0  0  0  0  0  0
   12.9330   38.4920   13.3510 O   0  0  0  0  0  1  0  0  0  0  0  0
    9.8630   37.2530   12.6010 N   0  0  0  0  0  0  0  0  0  0  0  0
    9.4430   36.9510   13.9720 C   0  0  0  0  0  0  0  0  0  0  0  0
   10.1870   35.7810   14.6310 C   0  0  0  0  0  0  0  0  0  0  0  0
    9.8090   34.4410   14.3690 C   0  0  0  0  0  0  0  0  0  0  0  0
   10.4880   33.3660   14.9710 C   0  0  0  0  0  0  0  0  0  0  0  0
   11.5560   33.6130   15.8480 C   0  0  0  0  0  0  0  0  0  0  0  0
   11.9490   34.9360   16.1250 C   0  0  0  0  0  0  0  0  0  0  0  0
   13.0240   35.1650   17.0090 C   0  0  0  0  0  0  0  0  0  0  0  0
   13.4340   36.4780   17.3010 C   0  0  0  0  0  0  0  0  0  0  0  0
   12.7690   37.5660   16.7090 C   0  0  0  0  0  0  0  0  0  0  0  0
   11.6940   37.3440   15.8260 C   0  0  0  0  0  0  0  0  0  0  0  0
   11.2690   36.0280   15.5200 C   0  0  0  0  0  0  0  0  0  0  0  0
    9.2430   36.6890   11.4930 C   0  0  0  0  0  0  0  0  0  0  0  0
    8.1850   35.7640   11.3780 C   0  0  0  0  0  0  0  0  0  0  0  0
    7.7410   35.3620   10.1070 C   0  0  0  0  0  0  0  0  0  0  0  0
    8.3550   35.8880    8.9560 C   0  0  0  0  0  0  0  0  0  0  0  0
    7.9290   35.5080    7.7280 F   0  0  0  0  0  0  0  0  0  0  0  0
    9.4130   36.8080    9.0800 C   0  0  0  0  0  0  0  0  0  0  0  0
    9.8870   37.2270   10.3470 C   0  0  0  0  0  0  0  0  0  0  0  0
    7.1273   38.4292    8.7826 H   0  0  0  0  0  0  0  0  0  0  0  0
    7.0382   39.8426    7.6776 H   0  0  0  0  0  0  0  0  0  0  0  0
    8.4960   38.7931    7.6776 H   0  0  0  0  0  0  0  0  0  0  0  0
    7.8111   41.0778    9.4274 H   0  0  0  0  0  0  0  0  0  0  0  0
    8.2707   39.6135   10.3575 H   0  0  0  0  0  0  0  0  0  0  0  0
   13.3023   41.1941   11.0903 H   0  0  0  0  0  0  0  0  0  0  0  0
   13.8308   40.4637    9.5366 H   0  0  0  0  0  0  0  0  0  0  0  0
   12.9086   42.0052    9.5366 H   0  0  0  0  0  0  0  0  0  0  0  0
   11.6699   38.5197    8.8245 H   0  0  0  0  0  0  0  0  0  0  0  0
   12.9106   38.5391   10.1521 H   0  0  0  0  0  0  0  0  0  0  0  0
    9.6064   37.8493   14.5855 H   0  0  0  0  0  0  0  0  0  0  0  0
    8.3862   36.6516   13.9129 H   0  0  0  0  0  0  0  0  0  0  0  0
    8.9721   34.2381   13.6846 H   0  0  0  0  0  0  0  0  0  0  0  0
   10.1821   32.3318   14.7545 H   0  0  0  0  0  0  0  0  0  0  0  0
   12.0861   32.7721   16.3191 H   0  0  0  0  0  0  0  0  0  0  0  0
   13.5437   34.3131   17.4718 H   0  0  0  0  0  0  0  0  0  0  0  0
   14.2728   36.6533   17.9907 H   0  0  0  0  0  0  0  0  0  0  0  0
   13.0890   38.5937   16.9359 H   0  0  0  0  0  0  0  0  0  0  0  0
   11.1791   38.2020   15.3692 H   0  0  0  0  0  0  0  0  0  0  0  0
    7.7079   35.3577   12.2820 H   0  0  0  0  0  0  0  0  0  0  0  0
    6.9171   34.6393   10.0125 H   0  0  0  0  0  0  0  0  0  0  0  0
    9.8830   37.2112    8.1709 H   0  0  0  0  0  0  0  0  0  0  0  0
  1  2  1  0
  2  3  1  0
  3  4  1  0
  4  5  2  0
  4  6  1  0
  6  7  1  0
  6  8  1  0
  8  9  1  0
  9 10  2  0
 10 11  1  0
 11 12  2  0
 11 13  1  0
 10 14  1  0
 14 15  1  0
 15 16  1  0
 16 17  2  0
 17 18  1  0
 18 19  2  0
 19 20  1  0
 20 21  2  0
 21 22  1  0
 22 23  2  0
 23 24  1  0
 24 25  2  0
 14 26  1  0
 26 27  2  0
 27 28  1  0
 28 29  2  0
 29 30  1  0
 29 31  1  0
 31 32  2  0
 32  9  1  0
 25 16  1  0
 32 26  1  0
 25 20  1  0
  1 33  1  0
  1 34  1  0
  1 35  1  0
  2 36  1  0
  2 37  1  0
  7 38  1  0
  7 39  1  0
  7 40  1  0
  8 41  1  0
  8 42  1  0
 15 43  1  0
 15 44  1  0
 17 45  1  0
 18 46  1  0
 19 47  1  0
 21 48  1  0
 22 49  1  0
 23 50  1  0
 24 51  1  0
 27 52  1  0
 28 53  1  0
 31 54  1  0
M  CHG  1  13  -1
M  END
>  <meeko>  (217) 
{"free_energy": -6.28, "intermolecular_energy": -8.67, "internal_energy": -2.2, "cluster_size": 253, "cluster_id": 8, "rank_in_cluster": 85}

$$$$

     RDKit          3D

 54 57  0  0  0  0  0  0  0  0999 V2000
    8.7180   33.2610   15.4100 C   0  0  0  0  0  0  0  0  0  0  0  0
   10.2120   33.5850   15.3290 C   0  0  0  0  0  0  0  0  0  0  0  0
   10.4430   34.8670   15.8890 O   0  0  0  0  0  0  0  0  0  0  0  0
   10.7980   35.8990   15.0940 C   0  0  0  0  0  0  0  0  0  0  0  0
   11.8130   36.5750   15.2740 O   0  0  0  0  0  0  0  0  0  0  0  0
    9.8650   36.0690   14.0630 N   0  0  0  0  0  0  0  0  0  0  0  0
    8.4490   36.3430   14.3290 C   0  0  0  0  0  0  0  0  0  0  0  0
   10.2590   35.9510   12.6530 C   0  0  0  0  0  0  0  0  0  0  0  0
    9.6740   37.0530   11.8010 C   0  0  0  0  0  0  0  0  0  0  0  0
    9.5870   38.4060   12.0750 C   0  0  0  0  0  0  0  0  0  0  0  0
   10.0720   39.1720   13.2660 C   0  0  0  0  0  0  0  0  0  0  0  0
    9.2920   39.9740   13.8230 O   0  0  0  0  0  0  0  0  0  0  0  0
   11.2420   39.0250   13.6830 O   0  0  0  0  0  1  0  0  0  0  0  0
    8.9040   39.0420   11.0160 N   0  0  0  0  0  0  0  0  0  0  0  0
    8.5850   40.4640   10.8610 C   0  0  0  0  0  0  0  0  0  0  0  0
    9.7080   41.4250   11.2730 C   0  0  0  0  0  0  0  0  0  0  0  0
   11.0330   41.2330   10.8100 C   0  0  0  0  0  0  0  0  0  0  0  0
   12.0650   42.1120   11.1840 C   0  0  0  0  0  0  0  0  0  0  0  0
   11.7900   43.1970   12.0310 C   0  0  0  0  0  0  0  0  0  0  0  0
   10.4820   43.4080   12.5060 C   0  0  0  0  0  0  0  0  0  0  0  0
   10.2250   44.5030   13.3560 C   0  0  0  0  0  0  0  0  0  0  0  0
    8.9260   44.7330   13.8430 C   0  0  0  0  0  0  0  0  0  0  0  0
    7.8790   43.8660   13.4790 C   0  0  0  0  0  0  0  0  0  0  0  0
    8.1300   42.7700   12.6310 C   0  0  0  0  0  0  0  0  0  0  0  0
    9.4330   42.5240   12.1310 C   0  0  0  0  0  0  0  0  0  0  0  0
    8.5530   38.0930   10.0640 C   0  0  0  0  0  0  0  0  0  0  0  0
    7.8580   38.2010    8.8420 C   0  0  0  0  0  0  0  0  0  0  0  0
    7.6440   37.0580    8.0540 C   0  0  0  0  0  0  0  0  0  0  0  0
    8.1280   35.8120    8.4880 C   0  0  0  0  0  0  0  0  0  0  0  0
    7.9300   34.7070    7.7310 F   0  0  0  0  0  0  0  0  0  0  0  0
    8.8190   35.7120    9.7110 C   0  0  0  0  0  0  0  0  0  0  0  0
    9.0430   36.8440   10.5310 C   0  0  0  0  0  0  0  0  0  0  0  0
    8.4138   33.1950   16.4650 H   0  0  0  0  0  0  0  0  0  0  0  0
    8.1430   34.0553   14.9116 H   0  0  0  0  0  0  0  0  0  0  0  0
    8.5237   32.2998   14.9116 H   0  0  0  0  0  0  0  0  0  0  0  0
   10.7829   32.8304   15.8899 H   0  0  0  0  0  0  0  0  0  0  0  0
   10.5348   33.5779   14.2775 H   0  0  0  0  0  0  0  0  0  0  0  0
    8.2797   36.3758   15.4154 H   0  0  0  0  0  0  0  0  0  0  0  0
    8.1733   37.3112   13.8856 H   0  0  0  0  0  0  0  0  0  0  0  0
    7.8320   35.5476   13.8856 H   0  0  0  0  0  0  0  0  0  0  0  0
   11.3560   35.9972   12.5870 H   0  0  0  0  0  0  0  0  0  0  0  0
    9.8743   34.9924   12.2748 H   0  0  0  0  0  0  0  0  0  0  0  0
    8.3485   40.6481    9.8026 H   0  0  0  0  0  0  0  0  0  0  0  0
    7.7410   40.6670   11.5366 H   0  0  0  0  0  0  0  0  0  0  0  0
   11.2579   40.3837   10.1481 H   0  0  0  0  0  0  0  0  0  0  0  0
   13.0876   41.9493   10.8128 H   0  0  0  0  0  0  0  0  0  0  0  0
   12.5980   43.8835   12.3240 H   0  0  0  0  0  0  0  0  0  0  0  0
   11.0441   45.1803   13.6395 H   0  0  0  0  0  0  0  0  0  0  0  0
    8.7289   45.5880   14.5064 H   0  0  0  0  0  0  0  0  0  0  0  0
    6.8619   44.0448   13.8578 H   0  0  0  0  0  0  0  0  0  0  0  0
    7.3052   42.0972   12.3536 H   0  0  0  0  0  0  0  0  0  0  0  0
    7.4838   39.1793    8.5061 H   0  0  0  0  0  0  0  0  0  0  0  0
    7.0999   37.1378    7.1013 H   0  0  0  0  0  0  0  0  0  0  0  0
    9.1938   34.7305   10.0370 H   0  0  0  0  0  0  0  0  0  0  0  0
  1  2  1  0
  2  3  1  0
  3  4  1  0
  4  5  2  0
  4  6  1  0
  6  7  1  0
  6  8  1  0
  8  9  1  0
  9 10  2  0
 10 11  1  0
 11 12  2  0
 11 13  1  0
 10 14  1  0
 14 15  1  0
 15 16  1  0
 16 17  2  0
 17 18  1  0
 18 19  2  0
 19 20  1  0
 20 21  2  0
 21 22  1  0
 22 23  2  0
 23 24  1  0
 24 25  2  0
 14 26  1  0
 26 27  2  0
 27 28  1  0
 28 29  2  0
 29 30  1  0
 29 31  1  0
 31 32  2  0
 32  9  1  0
 25 16  1  0
 32 26  1  0
 25 20  1  0
  1 33  1  0
  1 34  1  0
  1 35  1  0
  2 36  1  0
  2 37  1  0
  7 38  1  0
  7 39  1  0
  7 40  1  0
  8 41  1  0
  8 42  1  0
 15 43  1  0
 15 44  1  0
 17 45  1  0
 18 46  1  0
 19 47  1  0
 21 48  1  0
 22 49  1  0
 23 50  1  0
 24 51  1  0
 27 52  1  0
 28 53  1  0
 31 54  1  0
M  CHG  1  13  -1
M  END
>  <meeko>  (218) 
{"free_energy": -6.34, "intermolecular_energy": -8.73, "internal_energy": -1.65, "cluster_size": 318, "cluster_id": 5, "rank_in_cluster": 82}

$$$$

     RDKit          3D

 54 57  0  0  0  0  0  0  0  0999 V2000
   12.6130   42.5990    9.8890 C   0  0  0  0  0  0  0  0  0  0  0  0
   11.4920   42.1670    8.9400 C   0  0  0  0  0  0  0  0  0  0  0  0
   10.3070   41.9470    9.6870 O   0  0  0  0  0  0  0  0  0  0  0  0
    9.8620   40.6890    9.8940 C   0  0  0  0  0  0  0  0  0  0  0  0
    8.6740   40.3690    9.8180 O   0  0  0  0  0  0  0  0  0  0  0  0
   10.9300   39.8320   10.1900 N   0  0  0  0  0  0  0  0  0  0  0  0
   11.4550   38.8720    9.2130 C   0  0  0  0  0  0  0  0  0  0  0  0
   11.5620   39.8340   11.5160 C   0  0  0  0  0  0  0  0  0  0  0  0
   11.0880   38.6880   12.3780 C   0  0  0  0  0  0  0  0  0  0  0  0
   10.1340   37.7270   12.0930 C   0  0  0  0  0  0  0  0  0  0  0  0
    9.3270   37.5220   10.8500 C   0  0  0  0  0  0  0  0  0  0  0  0
    8.2130   38.0810   10.7580 O   0  0  0  0  0  0  0  0  0  0  0  0
    9.7510   36.7910    9.9290 O   0  0  0  0  0  1  0  0  0  0  0  0
    9.9750   36.8950   13.2230 N   0  0  0  0  0  0  0  0  0  0  0  0
    9.0880   35.7400   13.3860 C   0  0  0  0  0  0  0  0  0  0  0  0
    9.2820   34.9570   14.6910 C   0  0  0  0  0  0  0  0  0  0  0  0
   10.2630   33.9380   14.7870 C   0  0  0  0  0  0  0  0  0  0  0  0
   10.4440   33.2180   15.9810 C   0  0  0  0  0  0  0  0  0  0  0  0
    9.6460   33.5030   17.1000 C   0  0  0  0  0  0  0  0  0  0  0  0
    8.6630   34.5080   17.0290 C   0  0  0  0  0  0  0  0  0  0  0  0
    7.8700   34.7800   18.1630 C   0  0  0  0  0  0  0  0  0  0  0  0
    6.8830   35.7800   18.1150 C   0  0  0  0  0  0  0  0  0  0  0  0
    6.6870   36.5120   16.9300 C   0  0  0  0  0  0  0  0  0  0  0  0
    7.4750   36.2450   15.7940 C   0  0  0  0  0  0  0  0  0  0  0  0
    8.4740   35.2420   15.8260 C   0  0  0  0  0  0  0  0  0  0  0  0
   10.8280   37.3250   14.2310 C   0  0  0  0  0  0  0  0  0  0  0  0
   11.0450   36.8550   15.5430 C   0  0  0  0  0  0  0  0  0  0  0  0
   11.9950   37.4840   16.3640 C   0  0  0  0  0  0  0  0  0  0  0  0
   12.7250   38.5790   15.8720 C   0  0  0  0  0  0  0  0  0  0  0  0
   13.6450   39.1880   16.6580 F   0  0  0  0  0  0  0  0  0  0  0  0
   12.5010   39.0450   14.5620 C   0  0  0  0  0  0  0  0  0  0  0  0
   11.5460   38.4360   13.7130 C   0  0  0  0  0  0  0  0  0  0  0  0
   12.2816   42.4713   10.9301 H   0  0  0  0  0  0  0  0  0  0  0  0
   13.5044   41.9800    9.7094 H   0  0  0  0  0  0  0  0  0  0  0  0
   12.8584   43.6561    9.7094 H   0  0  0  0  0  0  0  0  0  0  0  0
   11.3159   42.9570    8.1951 H   0  0  0  0  0  0  0  0  0  0  0  0
   11.7814   41.2393    8.4247 H   0  0  0  0  0  0  0  0  0  0  0  0
   11.9177   38.0260    9.7424 H   0  0  0  0  0  0  0  0  0  0  0  0
   10.6325   38.5041    8.5820 H   0  0  0  0  0  0  0  0  0  0  0  0
   12.2085   39.3660    8.5820 H   0  0  0  0  0  0  0  0  0  0  0  0
   12.6517   39.7539   11.3887 H   0  0  0  0  0  0  0  0  0  0  0  0
   11.2845   40.7716   12.0199 H   0  0  0  0  0  0  0  0  0  0  0  0
    8.0490   36.0997   13.3543 H   0  0  0  0  0  0  0  0  0  0  0  0
    9.3326   35.0449   12.5693 H   0  0  0  0  0  0  0  0  0  0  0  0
   10.8918   33.7073   13.9145 H   0  0  0  0  0  0  0  0  0  0  0  0
   11.2109   32.4315   16.0382 H   0  0  0  0  0  0  0  0  0  0  0  0
    9.7891   32.9400   18.0341 H   0  0  0  0  0  0  0  0  0  0  0  0
    8.0244   34.2071   19.0893 H   0  0  0  0  0  0  0  0  0  0  0  0
    6.2660   35.9893   19.0013 H   0  0  0  0  0  0  0  0  0  0  0  0
    5.9158   37.2954   16.8906 H   0  0  0  0  0  0  0  0  0  0  0  0
    7.3127   36.8219   14.8716 H   0  0  0  0  0  0  0  0  0  0  0  0
   10.4709   35.9969   15.9226 H   0  0  0  0  0  0  0  0  0  0  0  0
   12.1669   37.1209   17.3880 H   0  0  0  0  0  0  0  0  0  0  0  0
   13.0816   39.9020   14.1900 H   0  0  0  0  0  0  0  0  0  0  0  0
  1  2  1  0
  2  3  1  0
  3  4  1  0
  4  5  2  0
  4  6  1  0
  6  7  1  0
  6  8  1  0
  8  9  1  0
  9 10  2  0
 10 11  1  0
 11 12  2  0
 11 13  1  0
 10 14  1  0
 14 15  1  0
 15 16  1  0
 16 17  2  0
 17 18  1  0
 18 19  2  0
 19 20  1  0
 20 21  2  0
 21 22  1  0
 22 23  2  0
 23 24  1  0
 24 25  2  0
 14 26  1  0
 26 27  2  0
 27 28  1  0
 28 29  2  0
 29 30  1  0
 29 31  1  0
 31 32  2  0
 32  9  1  0
 25 16  1  0
 32 26  1  0
 25 20  1  0
  1 33  1  0
  1 34  1  0
  1 35  1  0
  2 36  1  0
  2 37  1  0
  7 38  1  0
  7 39  1  0
  7 40  1  0
  8 41  1  0
  8 42  1  0
 15 43  1  0
 15 44  1  0
 17 45  1  0
 18 46  1  0
 19 47  1  0
 21 48  1  0
 22 49  1  0
 23 50  1  0
 24 51  1  0
 27 52  1  0
 28 53  1  0
 31 54  1  0
M  CHG  1  13  -1
M  END
>  <meeko>  (219) 
{"free_energy": -5.76, "intermolecular_energy": -8.14, "internal_energy": -0.77, "cluster_size": 73, "cluster_id": 49, "rank_in_cluster": 22}

$$$$

     RDKit          3D

 54 57  0  0  0  0  0  0  0  0999 V2000
   12.2170   34.8800   16.2920 C   0  0  0  0  0  0  0  0  0  0  0  0
   10.7190   34.6290   16.4850 C   0  0  0  0  0  0  0  0  0  0  0  0
   10.2100   33.9490   15.3500 O   0  0  0  0  0  0  0  0  0  0  0  0
    9.0700   34.3720   14.7630 C   0  0  0  0  0  0  0  0  0  0  0  0
    8.2070   33.6070   14.3270 O   0  0  0  0  0  0  0  0  0  0  0  0
    9.0230   35.7720   14.7340 N   0  0  0  0  0  0  0  0  0  0  0  0
    7.8260   36.5200   15.1330 C   0  0  0  0  0  0  0  0  0  0  0  0
   10.1700   36.5630   14.2700 C   0  0  0  0  0  0  0  0  0  0  0  0
    9.7970   37.5150   13.1580 C   0  0  0  0  0  0  0  0  0  0  0  0
    9.9370   38.8910   13.1120 C   0  0  0  0  0  0  0  0  0  0  0  0
   10.5240   39.8250   14.1230 C   0  0  0  0  0  0  0  0  0  0  0  0
   11.7570   39.7890   14.3280 O   0  0  0  0  0  0  0  0  0  0  0  0
    9.7930   40.6120   14.7630 O   0  0  0  0  0  1  0  0  0  0  0  0
    9.3910   39.3630   11.8990 N   0  0  0  0  0  0  0  0  0  0  0  0
    9.3220   40.7410   11.4060 C   0  0  0  0  0  0  0  0  0  0  0  0
   10.6760   41.4550   11.2940 C   0  0  0  0  0  0  0  0  0  0  0  0
   10.9320   42.6460   12.0180 C   0  0  0  0  0  0  0  0  0  0  0  0
   12.1700   43.3020   11.9190 C   0  0  0  0  0  0  0  0  0  0  0  0
   13.1770   42.7810   11.0900 C   0  0  0  0  0  0  0  0  0  0  0  0
   12.9470   41.6000   10.3600 C   0  0  0  0  0  0  0  0  0  0  0  0
   13.9700   41.0900    9.5320 C   0  0  0  0  0  0  0  0  0  0  0  0
   13.7620   39.9120    8.7930 C   0  0  0  0  0  0  0  0  0  0  0  0
   12.5300   39.2400    8.8800 C   0  0  0  0  0  0  0  0  0  0  0  0
   11.5050   39.7440    9.7030 C   0  0  0  0  0  0  0  0  0  0  0  0
   11.6970   40.9290   10.4560 C   0  0  0  0  0  0  0  0  0  0  0  0
    8.9020   38.2870   11.1690 C   0  0  0  0  0  0  0  0  0  0  0  0
    8.2570   38.2170    9.9170 C   0  0  0  0  0  0  0  0  0  0  0  0
    7.8660   36.9720    9.3980 C   0  0  0  0  0  0  0  0  0  0  0  0
    8.1220   35.8000   10.1320 C   0  0  0  0  0  0  0  0  0  0  0  0
    7.7520   34.5960    9.6360 F   0  0  0  0  0  0  0  0  0  0  0  0
    8.7630   35.8790   11.3830 C   0  0  0  0  0  0  0  0  0  0  0  0
    9.1630   37.1200   11.9350 C   0  0  0  0  0  0  0  0  0  0  0  0
   12.7047   34.9617   17.2746 H   0  0  0  0  0  0  0  0  0  0  0  0
   12.6597   34.0435   15.7314 H   0  0  0  0  0  0  0  0  0  0  0  0
   12.3629   35.8151   15.7314 H   0  0  0  0  0  0  0  0  0  0  0  0
   10.5618   34.0140   17.3834 H   0  0  0  0  0  0  0  0  0  0  0  0
   10.1961   35.5892   16.6057 H   0  0  0  0  0  0  0  0  0  0  0  0
    7.7660   36.5575   16.2307 H   0  0  0  0  0  0  0  0  0  0  0  0
    7.8831   37.5434   14.7337 H   0  0  0  0  0  0  0  0  0  0  0  0
    6.9312   36.0201   14.7337 H   0  0  0  0  0  0  0  0  0  0  0  0
   10.5643   37.1446   15.1163 H   0  0  0  0  0  0  0  0  0  0  0  0
   10.9236   35.8648   13.8769 H   0  0  0  0  0  0  0  0  0  0  0  0
    8.8608   40.7241   10.4075 H   0  0  0  0  0  0  0  0  0  0  0  0
    8.7358   41.3049   12.1465 H   0  0  0  0  0  0  0  0  0  0  0  0
   10.1487   43.0634   12.6678 H   0  0  0  0  0  0  0  0  0  0  0  0
   12.3510   44.2241   12.4909 H   0  0  0  0  0  0  0  0  0  0  0  0
   14.1457   43.2962   11.0113 H   0  0  0  0  0  0  0  0  0  0  0  0
   14.9337   41.6161    9.4646 H   0  0  0  0  0  0  0  0  0  0  0  0
   14.5611   39.5171    8.1484 H   0  0  0  0  0  0  0  0  0  0  0  0
   12.3666   38.3177    8.3033 H   0  0  0  0  0  0  0  0  0  0  0  0
   10.5441   39.2119    9.7622 H   0  0  0  0  0  0  0  0  0  0  0  0
    8.0602   39.1371    9.3472 H   0  0  0  0  0  0  0  0  0  0  0  0
    7.3619   36.9138    8.4220 H   0  0  0  0  0  0  0  0  0  0  0  0
    8.9578   34.9539   11.9454 H   0  0  0  0  0  0  0  0  0  0  0  0
  1  2  1  0
  2  3  1  0
  3  4  1  0
  4  5  2  0
  4  6  1  0
  6  7  1  0
  6  8  1  0
  8  9  1  0
  9 10  2  0
 10 11  1  0
 11 12  2  0
 11 13  1  0
 10 14  1  0
 14 15  1  0
 15 16  1  0
 16 17  2  0
 17 18  1  0
 18 19  2  0
 19 20  1  0
 20 21  2  0
 21 22  1  0
 22 23  2  0
 23 24  1  0
 24 25  2  0
 14 26  1  0
 26 27  2  0
 27 28  1  0
 28 29  2  0
 29 30  1  0
 29 31  1  0
 31 32  2  0
 32  9  1  0
 25 16  1  0
 32 26  1  0
 25 20  1  0
  1 33  1  0
  1 34  1  0
  1 35  1  0
  2 36  1  0
  2 37  1  0
  7 38  1  0
  7 39  1  0
  7 40  1  0
  8 41  1  0
  8 42  1  0
 15 43  1  0
 15 44  1  0
 17 45  1  0
 18 46  1  0
 19 47  1  0
 21 48  1  0
 22 49  1  0
 23 50  1  0
 24 51  1  0
 27 52  1  0
 28 53  1  0
 31 54  1  0
M  CHG  1  13  -1
M  END
>  <meeko>  (220) 
{"free_energy": -5.87, "intermolecular_energy": -8.26, "internal_energy": -1.98, "cluster_size": 318, "cluster_id": 5, "rank_in_cluster": 171}

$$$$

     RDKit          3D

 54 57  0  0  0  0  0  0  0  0999 V2000
    8.9420   40.2580    9.8500 C   0  0  0  0  0  0  0  0  0  0  0  0
    9.7400   41.4130   10.4600 C   0  0  0  0  0  0  0  0  0  0  0  0
   10.6820   40.8940   11.3840 O   0  0  0  0  0  0  0  0  0  0  0  0
   12.0040   41.0620   11.1690 C   0  0  0  0  0  0  0  0  0  0  0  0
   12.7030   41.8400   11.8200 O   0  0  0  0  0  0  0  0  0  0  0  0
   12.4420   40.2320   10.1290 N   0  0  0  0  0  0  0  0  0  0  0  0
   12.6860   40.7420    8.7750 C   0  0  0  0  0  0  0  0  0  0  0  0
   12.6510   38.7930   10.3380 C   0  0  0  0  0  0  0  0  0  0  0  0
   11.7340   38.2300   11.3980 C   0  0  0  0  0  0  0  0  0  0  0  0
   11.8540   38.3010   12.7740 C   0  0  0  0  0  0  0  0  0  0  0  0
   12.8960   38.9780   13.6070 C   0  0  0  0  0  0  0  0  0  0  0  0
   12.6350   40.0960   14.1020 O   0  0  0  0  0  0  0  0  0  0  0  0
   14.0120   38.4450   13.7890 O   0  0  0  0  0  1  0  0  0  0  0  0
   10.7950   37.5740   13.3610 N   0  0  0  0  0  0  0  0  0  0  0  0
   10.5050   37.3770   14.7840 C   0  0  0  0  0  0  0  0  0  0  0  0
    9.9920   35.9780   15.1490 C   0  0  0  0  0  0  0  0  0  0  0  0
   10.6970   34.8170   14.7430 C   0  0  0  0  0  0  0  0  0  0  0  0
   10.2310   33.5340   15.0760 C   0  0  0  0  0  0  0  0  0  0  0  0
    9.0490   33.3870   15.8200 C   0  0  0  0  0  0  0  0  0  0  0  0
    8.3300   34.5240   16.2340 C   0  0  0  0  0  0  0  0  0  0  0  0
    7.1450   34.3580   16.9800 C   0  0  0  0  0  0  0  0  0  0  0  0
    6.4100   35.4800   17.4030 C   0  0  0  0  0  0  0  0  0  0  0  0
    6.8600   36.7720   17.0810 C   0  0  0  0  0  0  0  0  0  0  0  0
    8.0420   36.9450   16.3360 C   0  0  0  0  0  0  0  0  0  0  0  0
    8.7950   35.8260   15.9020 C   0  0  0  0  0  0  0  0  0  0  0  0
    9.9980   37.0380   12.3580 C   0  0  0  0  0  0  0  0  0  0  0  0
    8.8420   36.2320   12.4070 C   0  0  0  0  0  0  0  0  0  0  0  0
    8.2170   35.8300   11.2150 C   0  0  0  0  0  0  0  0  0  0  0  0
    8.7480   36.2360    9.9780 C   0  0  0  0  0  0  0  0  0  0  0  0
    8.1480   35.8550    8.8260 F   0  0  0  0  0  0  0  0  0  0  0  0
    9.9050   37.0380    9.9370 C   0  0  0  0  0  0  0  0  0  0  0  0
   10.5610   37.4530   11.1220 C   0  0  0  0  0  0  0  0  0  0  0  0
    8.5159   39.6413   10.6551 H   0  0  0  0  0  0  0  0  0  0  0  0
    8.1294   40.6619    9.2283 H   0  0  0  0  0  0  0  0  0  0  0  0
    9.6072   39.6408    9.2283 H   0  0  0  0  0  0  0  0  0  0  0  0
   10.2682   41.9564    9.6626 H   0  0  0  0  0  0  0  0  0  0  0  0
    9.0557   42.1011   10.9780 H   0  0  0  0  0  0  0  0  0  0  0  0
   13.1600   41.7327    8.8363 H   0  0  0  0  0  0  0  0  0  0  0  0
   13.3507   40.0502    8.2368 H   0  0  0  0  0  0  0  0  0  0  0  0
   11.7303   40.8254    8.2368 H   0  0  0  0  0  0  0  0  0  0  0  0
   12.4623   38.2666    9.3907 H   0  0  0  0  0  0  0  0  0  0  0  0
   13.6873   38.6486   10.6774 H   0  0  0  0  0  0  0  0  0  0  0  0
   11.4300   37.5607   15.3502 H   0  0  0  0  0  0  0  0  0  0  0  0
    9.6957   38.0785   15.0348 H   0  0  0  0  0  0  0  0  0  0  0  0
   11.6229   34.9222   14.1584 H   0  0  0  0  0  0  0  0  0  0  0  0
   10.7922   32.6444   14.7539 H   0  0  0  0  0  0  0  0  0  0  0  0
    8.6846   32.3821   16.0795 H   0  0  0  0  0  0  0  0  0  0  0  0
    6.7939   33.3465   17.2322 H   0  0  0  0  0  0  0  0  0  0  0  0
    5.4856   35.3468   17.9842 H   0  0  0  0  0  0  0  0  0  0  0  0
    6.2869   37.6506   17.4121 H   0  0  0  0  0  0  0  0  0  0  0  0
    8.3848   37.9604   16.0881 H   0  0  0  0  0  0  0  0  0  0  0  0
    8.4301   35.9184   13.3776 H   0  0  0  0  0  0  0  0  0  0  0  0
    7.3158   35.2001   11.2492 H   0  0  0  0  0  0  0  0  0  0  0  0
   10.3086   37.3494    8.9622 H   0  0  0  0  0  0  0  0  0  0  0  0
  1  2  1  0
  2  3  1  0
  3  4  1  0
  4  5  2  0
  4  6  1  0
  6  7  1  0
  6  8  1  0
  8  9  1  0
  9 10  2  0
 10 11  1  0
 11 12  2  0
 11 13  1  0
 10 14  1  0
 14 15  1  0
 15 16  1  0
 16 17  2  0
 17 18  1  0
 18 19  2  0
 19 20  1  0
 20 21  2  0
 21 22  1  0
 22 23  2  0
 23 24  1  0
 24 25  2  0
 14 26  1  0
 26 27  2  0
 27 28  1  0
 28 29  2  0
 29 30  1  0
 29 31  1  0
 31 32  2  0
 32  9  1  0
 25 16  1  0
 32 26  1  0
 25 20  1  0
  1 33  1  0
  1 34  1  0
  1 35  1  0
  2 36  1  0
  2 37  1  0
  7 38  1  0
  7 39  1  0
  7 40  1  0
  8 41  1  0
  8 42  1  0
 15 43  1  0
 15 44  1  0
 17 45  1  0
 18 46  1  0
 19 47  1  0
 21 48  1  0
 22 49  1  0
 23 50  1  0
 24 51  1  0
 27 52  1  0
 28 53  1  0
 31 54  1  0
M  CHG  1  13  -1
M  END
>  <meeko>  (221) 
{"free_energy": -6.47, "intermolecular_energy": -8.86, "internal_energy": -1.91, "cluster_size": 253, "cluster_id": 8, "rank_in_cluster": 57}

$$$$

     RDKit          3D

 54 57  0  0  0  0  0  0  0  0999 V2000
   10.6010   33.2080   16.4000 C   0  0  0  0  0  0  0  0  0  0  0  0
   12.0030   33.7990   16.2360 C   0  0  0  0  0  0  0  0  0  0  0  0
   11.9730   34.8060   15.2380 O   0  0  0  0  0  0  0  0  0  0  0  0
   10.9910   35.7340   15.2440 C   0  0  0  0  0  0  0  0  0  0  0  0
    9.8250   35.4880   14.9300 O   0  0  0  0  0  0  0  0  0  0  0  0
   11.4910   36.9760   15.6550 N   0  0  0  0  0  0  0  0  0  0  0  0
   11.2890   37.4870   17.0150 C   0  0  0  0  0  0  0  0  0  0  0  0
   12.2240   37.8480   14.7270 C   0  0  0  0  0  0  0  0  0  0  0  0
   11.4670   38.0770   13.4390 C   0  0  0  0  0  0  0  0  0  0  0  0
   10.1030   38.0240   13.2150 C   0  0  0  0  0  0  0  0  0  0  0  0
    8.9870   37.7620   14.1760 C   0  0  0  0  0  0  0  0  0  0  0  0
    8.1290   36.9030   13.8810 O   0  0  0  0  0  0  0  0  0  0  0  0
    8.9050   38.4050   15.2460 O   0  0  0  0  0  1  0  0  0  0  0  0
    9.8600   38.2430   11.8420 N   0  0  0  0  0  0  0  0  0  0  0  0
    8.5740   38.2870   11.1410 C   0  0  0  0  0  0  0  0  0  0  0  0
    8.3670   37.1780   10.1010 C   0  0  0  0  0  0  0  0  0  0  0  0
    8.6620   35.8270   10.4130 C   0  0  0  0  0  0  0  0  0  0  0  0
    8.4740   34.8070    9.4640 C   0  0  0  0  0  0  0  0  0  0  0  0
    7.9890   35.1200    8.1840 C   0  0  0  0  0  0  0  0  0  0  0  0
    7.6910   36.4540    7.8490 C   0  0  0  0  0  0  0  0  0  0  0  0
    7.2050   36.7500    6.5590 C   0  0  0  0  0  0  0  0  0  0  0  0
    6.9000   38.0760    6.2030 C   0  0  0  0  0  0  0  0  0  0  0  0
    7.0810   39.1100    7.1380 C   0  0  0  0  0  0  0  0  0  0  0  0
    7.5660   38.8220    8.4280 C   0  0  0  0  0  0  0  0  0  0  0  0
    7.8770   37.4920    8.8040 C   0  0  0  0  0  0  0  0  0  0  0  0
   11.0700   38.4360   11.1880 C   0  0  0  0  0  0  0  0  0  0  0  0
   11.3780   38.6740    9.8320 C   0  0  0  0  0  0  0  0  0  0  0  0
   12.7150   38.8440    9.4370 C   0  0  0  0  0  0  0  0  0  0  0  0
   13.7390   38.7760   10.3980 C   0  0  0  0  0  0  0  0  0  0  0  0
   15.0300   38.9430   10.0240 F   0  0  0  0  0  0  0  0  0  0  0  0
   13.4240   38.5340   11.7490 C   0  0  0  0  0  0  0  0  0  0  0  0
   12.0870   38.3520   12.1760 C   0  0  0  0  0  0  0  0  0  0  0  0
   10.3675   33.1096   17.4704 H   0  0  0  0  0  0  0  0  0  0  0  0
    9.8650   33.8724   15.9237 H   0  0  0  0  0  0  0  0  0  0  0  0
   10.5627   32.2172   15.9237 H   0  0  0  0  0  0  0  0  0  0  0  0
   12.3311   34.2369   17.1902 H   0  0  0  0  0  0  0  0  0  0  0  0
   12.7048   33.0060   15.9385 H   0  0  0  0  0  0  0  0  0  0  0  0
   11.5920   36.7205   17.7435 H   0  0  0  0  0  0  0  0  0  0  0  0
   11.8970   38.3920   17.1607 H   0  0  0  0  0  0  0  0  0  0  0  0
   10.2265   37.7317   17.1607 H   0  0  0  0  0  0  0  0  0  0  0  0
   12.3955   38.8191   15.2144 H   0  0  0  0  0  0  0  0  0  0  0  0
   13.1734   37.3520   14.4767 H   0  0  0  0  0  0  0  0  0  0  0  0
    7.7732   38.2062   11.8908 H   0  0  0  0  0  0  0  0  0  0  0  0
    8.5571   39.2369   10.5866 H   0  0  0  0  0  0  0  0  0  0  0  0
    9.0438   35.5729   11.4128 H   0  0  0  0  0  0  0  0  0  0  0  0
    8.7068   33.7639    9.7242 H   0  0  0  0  0  0  0  0  0  0  0  0
    7.8418   34.3214    7.4420 H   0  0  0  0  0  0  0  0  0  0  0  0
    7.0638   35.9404    5.8279 H   0  0  0  0  0  0  0  0  0  0  0  0
    6.5209   38.3034    5.1957 H   0  0  0  0  0  0  0  0  0  0  0  0
    6.8429   40.1476    6.8609 H   0  0  0  0  0  0  0  0  0  0  0  0
    7.7050   39.6386    9.1518 H   0  0  0  0  0  0  0  0  0  0  0  0
   10.5721   38.7263    9.0851 H   0  0  0  0  0  0  0  0  0  0  0  0
   12.9598   39.0295    8.3808 H   0  0  0  0  0  0  0  0  0  0  0  0
   14.2359   38.4853   12.4896 H   0  0  0  0  0  0  0  0  0  0  0  0
  1  2  1  0
  2  3  1  0
  3  4  1  0
  4  5  2  0
  4  6  1  0
  6  7  1  0
  6  8  1  0
  8  9  1  0
  9 10  2  0
 10 11  1  0
 11 12  2  0
 11 13  1  0
 10 14  1  0
 14 15  1  0
 15 16  1  0
 16 17  2  0
 17 18  1  0
 18 19  2  0
 19 20  1  0
 20 21  2  0
 21 22  1  0
 22 23  2  0
 23 24  1  0
 24 25  2  0
 14 26  1  0
 26 27  2  0
 27 28  1  0
 28 29  2  0
 29 30  1  0
 29 31  1  0
 31 32  2  0
 32  9  1  0
 25 16  1  0
 32 26  1  0
 25 20  1  0
  1 33  1  0
  1 34  1  0
  1 35  1  0
  2 36  1  0
  2 37  1  0
  7 38  1  0
  7 39  1  0
  7 40  1  0
  8 41  1  0
  8 42  1  0
 15 43  1  0
 15 44  1  0
 17 45  1  0
 18 46  1  0
 19 47  1  0
 21 48  1  0
 22 49  1  0
 23 50  1  0
 24 51  1  0
 27 52  1  0
 28 53  1  0
 31 54  1  0
M  CHG  1  13  -1
M  END
>  <meeko>  (222) 
{"free_energy": -6.49, "intermolecular_energy": -8.87, "internal_energy": -1.11, "cluster_size": 263, "cluster_id": 1, "rank_in_cluster": 152}

$$$$

     RDKit          3D

 54 57  0  0  0  0  0  0  0  0999 V2000
   15.6280   39.7010    8.4870 C   0  0  0  0  0  0  0  0  0  0  0  0
   15.1800   38.7690    9.6160 C   0  0  0  0  0  0  0  0  0  0  0  0
   15.7040   39.2430   10.8470 O   0  0  0  0  0  0  0  0  0  0  0  0
   14.9840   39.1160   11.9820 C   0  0  0  0  0  0  0  0  0  0  0  0
   14.9340   38.0750   12.6400 O   0  0  0  0  0  0  0  0  0  0  0  0
   14.3320   40.3180   12.2860 N   0  0  0  0  0  0  0  0  0  0  0  0
   14.1470   40.7770   13.6680 C   0  0  0  0  0  0  0  0  0  0  0  0
   13.7710   41.1690   11.2290 C   0  0  0  0  0  0  0  0  0  0  0  0
   12.2600   41.1790   11.2440 C   0  0  0  0  0  0  0  0  0  0  0  0
   11.3820   40.2860   10.6560 C   0  0  0  0  0  0  0  0  0  0  0  0
   11.6670   39.0430    9.8720 C   0  0  0  0  0  0  0  0  0  0  0  0
   11.0890   38.8790    8.7760 O   0  0  0  0  0  0  0  0  0  0  0  0
   12.4530   38.1780   10.3150 O   0  0  0  0  0  1  0  0  0  0  0  0
   10.0620   40.7320   10.8810 N   0  0  0  0  0  0  0  0  0  0  0  0
    8.8050   40.1080   10.4570 C   0  0  0  0  0  0  0  0  0  0  0  0
    8.7880   38.5760   10.5350 C   0  0  0  0  0  0  0  0  0  0  0  0
    8.3140   37.7990    9.4480 C   0  0  0  0  0  0  0  0  0  0  0  0
    8.2970   36.3950    9.5150 C   0  0  0  0  0  0  0  0  0  0  0  0
    8.7500   35.7410   10.6720 C   0  0  0  0  0  0  0  0  0  0  0  0
    9.2230   36.4910   11.7650 C   0  0  0  0  0  0  0  0  0  0  0  0
    9.6740   35.8170   12.9200 C   0  0  0  0  0  0  0  0  0  0  0  0
   10.1510   36.5450   14.0240 C   0  0  0  0  0  0  0  0  0  0  0  0
   10.1780   37.9510   13.9760 C   0  0  0  0  0  0  0  0  0  0  0  0
    9.7280   38.6290   12.8270 C   0  0  0  0  0  0  0  0  0  0  0  0
    9.2450   37.9110   11.7050 C   0  0  0  0  0  0  0  0  0  0  0  0
   10.0960   41.9120   11.6130 C   0  0  0  0  0  0  0  0  0  0  0  0
    9.0690   42.7580   12.0800 C   0  0  0  0  0  0  0  0  0  0  0  0
    9.3910   43.9080   12.8190 C   0  0  0  0  0  0  0  0  0  0  0  0
   10.7370   44.2080   13.0910 C   0  0  0  0  0  0  0  0  0  0  0  0
   11.0540   45.3130   13.8070 F   0  0  0  0  0  0  0  0  0  0  0  0
   11.7570   43.3600   12.6180 C   0  0  0  0  0  0  0  0  0  0  0  0
   11.4650   42.1970   11.8640 C   0  0  0  0  0  0  0  0  0  0  0  0
   16.0666   40.6135    8.9171 H   0  0  0  0  0  0  0  0  0  0  0  0
   16.3791   39.1905    7.8664 H   0  0  0  0  0  0  0  0  0  0  0  0
   14.7601   39.9687    7.8664 H   0  0  0  0  0  0  0  0  0  0  0  0
   14.0812   38.7526    9.6656 H   0  0  0  0  0  0  0  0  0  0  0  0
   15.5498   37.7510    9.4240 H   0  0  0  0  0  0  0  0  0  0  0  0
   14.4658   39.9861   14.3628 H   0  0  0  0  0  0  0  0  0  0  0  0
   14.7513   41.6802   13.8384 H   0  0  0  0  0  0  0  0  0  0  0  0
   13.0853   41.0087   13.8384 H   0  0  0  0  0  0  0  0  0  0  0  0
   14.1332   42.1976   11.3731 H   0  0  0  0  0  0  0  0  0  0  0  0
   14.0958   40.7614   10.2603 H   0  0  0  0  0  0  0  0  0  0  0  0
    7.9988   40.4922   11.0992 H   0  0  0  0  0  0  0  0  0  0  0  0
    8.6747   40.3651    9.3954 H   0  0  0  0  0  0  0  0  0  0  0  0
    7.9541   38.3024    8.5385 H   0  0  0  0  0  0  0  0  0  0  0  0
    7.9286   35.8083    8.6605 H   0  0  0  0  0  0  0  0  0  0  0  0
    8.7352   34.6423   10.7242 H   0  0  0  0  0  0  0  0  0  0  0  0
    9.6522   34.7178   12.9565 H   0  0  0  0  0  0  0  0  0  0  0  0
   10.5021   36.0170   14.9228 H   0  0  0  0  0  0  0  0  0  0  0  0
   10.5518   38.5221   14.8386 H   0  0  0  0  0  0  0  0  0  0  0  0
    9.7517   39.7284   12.8001 H   0  0  0  0  0  0  0  0  0  0  0  0
    8.0172   42.5175   11.8658 H   0  0  0  0  0  0  0  0  0  0  0  0
    8.5929   44.5714   13.1836 H   0  0  0  0  0  0  0  0  0  0  0  0
   12.8058   43.6068   12.8394 H   0  0  0  0  0  0  0  0  0  0  0  0
  1  2  1  0
  2  3  1  0
  3  4  1  0
  4  5  2  0
  4  6  1  0
  6  7  1  0
  6  8  1  0
  8  9  1  0
  9 10  2  0
 10 11  1  0
 11 12  2  0
 11 13  1  0
 10 14  1  0
 14 15  1  0
 15 16  1  0
 16 17  2  0
 17 18  1  0
 18 19  2  0
 19 20  1  0
 20 21  2  0
 21 22  1  0
 22 23  2  0
 23 24  1  0
 24 25  2  0
 14 26  1  0
 26 27  2  0
 27 28  1  0
 28 29  2  0
 29 30  1  0
 29 31  1  0
 31 32  2  0
 32  9  1  0
 25 16  1  0
 32 26  1  0
 25 20  1  0
  1 33  1  0
  1 34  1  0
  1 35  1  0
  2 36  1  0
  2 37  1  0
  7 38  1  0
  7 39  1  0
  7 40  1  0
  8 41  1  0
  8 42  1  0
 15 43  1  0
 15 44  1  0
 17 45  1  0
 18 46  1  0
 19 47  1  0
 21 48  1  0
 22 49  1  0
 23 50  1  0
 24 51  1  0
 27 52  1  0
 28 53  1  0
 31 54  1  0
M  CHG  1  13  -1
M  END
>  <meeko>  (223) 
{"free_energy": -4.97, "intermolecular_energy": -7.36, "internal_energy": -2.24, "cluster_size": 417, "cluster_id": 2, "rank_in_cluster": 390}

$$$$

     RDKit          3D

 54 57  0  0  0  0  0  0  0  0999 V2000
   13.6740   44.2930   12.6470 C   0  0  0  0  0  0  0  0  0  0  0  0
   13.5700   43.4580   13.9260 C   0  0  0  0  0  0  0  0  0  0  0  0
   13.5880   42.0800   13.5870 O   0  0  0  0  0  0  0  0  0  0  0  0
   14.5190   41.2630   14.1240 C   0  0  0  0  0  0  0  0  0  0  0  0
   15.7210   41.3410   13.8630 O   0  0  0  0  0  0  0  0  0  0  0  0
   13.9230   40.3490   15.0020 N   0  0  0  0  0  0  0  0  0  0  0  0
   14.5400   39.9790   16.2810 C   0  0  0  0  0  0  0  0  0  0  0  0
   12.6550   39.6880   14.6680 C   0  0  0  0  0  0  0  0  0  0  0  0
   12.5200   39.4240   13.1870 C   0  0  0  0  0  0  0  0  0  0  0  0
   11.4100   39.5850   12.3750 C   0  0  0  0  0  0  0  0  0  0  0  0
   10.0450   40.0940   12.7160 C   0  0  0  0  0  0  0  0  0  0  0  0
    9.6760   41.1880   12.2370 O   0  0  0  0  0  0  0  0  0  0  0  0
    9.2970   39.4470   13.4800 O   0  0  0  0  0  1  0  0  0  0  0  0
   11.7340   39.1530   11.0720 N   0  0  0  0  0  0  0  0  0  0  0  0
   10.8840   39.1430    9.8780 C   0  0  0  0  0  0  0  0  0  0  0  0
   10.0680   37.8600    9.6770 C   0  0  0  0  0  0  0  0  0  0  0  0
   10.4620   36.6450   10.2920 C   0  0  0  0  0  0  0  0  0  0  0  0
    9.7180   35.4670   10.1110 C   0  0  0  0  0  0  0  0  0  0  0  0
    8.5650   35.4810    9.3090 C   0  0  0  0  0  0  0  0  0  0  0  0
    8.1540   36.6750    8.6860 C   0  0  0  0  0  0  0  0  0  0  0  0
    6.9940   36.6700    7.8840 C   0  0  0  0  0  0  0  0  0  0  0  0
    6.5650   37.8510    7.2510 C   0  0  0  0  0  0  0  0  0  0  0  0
    7.2960   39.0400    7.4210 C   0  0  0  0  0  0  0  0  0  0  0  0
    8.4550   39.0510    8.2200 C   0  0  0  0  0  0  0  0  0  0  0  0
    8.9010   37.8710    8.8650 C   0  0  0  0  0  0  0  0  0  0  0  0
   13.0520   38.7150   11.0490 C   0  0  0  0  0  0  0  0  0  0  0  0
   13.8470   38.1800   10.0140 C   0  0  0  0  0  0  0  0  0  0  0  0
   15.1810   37.8200   10.2700 C   0  0  0  0  0  0  0  0  0  0  0  0
   15.7160   37.9970   11.5580 C   0  0  0  0  0  0  0  0  0  0  0  0
   17.0020   37.6560   11.8100 F   0  0  0  0  0  0  0  0  0  0  0  0
   14.9140   38.5290   12.5870 C   0  0  0  0  0  0  0  0  0  0  0  0
   13.5650   38.8940   12.3620 C   0  0  0  0  0  0  0  0  0  0  0  0
   13.8060   45.3527   12.9107 H   0  0  0  0  0  0  0  0  0  0  0  0
   14.5366   43.9521   12.0557 H   0  0  0  0  0  0  0  0  0  0  0  0
   12.7541   44.1741   12.0557 H   0  0  0  0  0  0  0  0  0  0  0  0
   14.4213   43.6860   14.5843 H   0  0  0  0  0  0  0  0  0  0  0  0
   12.6320   43.6976   14.4483 H   0  0  0  0  0  0  0  0  0  0  0  0
   13.9190   40.3514   17.1090 H   0  0  0  0  0  0  0  0  0  0  0  0
   14.6199   38.8839   16.3464 H   0  0  0  0  0  0  0  0  0  0  0  0
   15.5437   40.4244   16.3464 H   0  0  0  0  0  0  0  0  0  0  0  0
   12.6037   38.7291   15.2046 H   0  0  0  0  0  0  0  0  0  0  0  0
   11.8363   40.3592   14.9666 H   0  0  0  0  0  0  0  0  0  0  0  0
   10.1819   39.9866    9.9513 H   0  0  0  0  0  0  0  0  0  0  0  0
   11.5628   39.2152    9.0154 H   0  0  0  0  0  0  0  0  0  0  0  0
   11.3643   36.6242   10.9208 H   0  0  0  0  0  0  0  0  0  0  0  0
   10.0385   34.5338   10.5973 H   0  0  0  0  0  0  0  0  0  0  0  0
    7.9827   34.5586    9.1675 H   0  0  0  0  0  0  0  0  0  0  0  0
    6.4225   35.7393    7.7529 H   0  0  0  0  0  0  0  0  0  0  0  0
    5.6605   37.8442    6.6250 H   0  0  0  0  0  0  0  0  0  0  0  0
    6.9612   39.9646    6.9281 H   0  0  0  0  0  0  0  0  0  0  0  0
    9.0206   39.9861    8.3449 H   0  0  0  0  0  0  0  0  0  0  0  0
   13.4234   38.0448    9.0079 H   0  0  0  0  0  0  0  0  0  0  0  0
   15.8041   37.4014    9.4659 H   0  0  0  0  0  0  0  0  0  0  0  0
   15.3466   38.6639   13.5893 H   0  0  0  0  0  0  0  0  0  0  0  0
  1  2  1  0
  2  3  1  0
  3  4  1  0
  4  5  2  0
  4  6  1  0
  6  7  1  0
  6  8  1  0
  8  9  1  0
  9 10  2  0
 10 11  1  0
 11 12  2  0
 11 13  1  0
 10 14  1  0
 14 15  1  0
 15 16  1  0
 16 17  2  0
 17 18  1  0
 18 19  2  0
 19 20  1  0
 20 21  2  0
 21 22  1  0
 22 23  2  0
 23 24  1  0
 24 25  2  0
 14 26  1  0
 26 27  2  0
 27 28  1  0
 28 29  2  0
 29 30  1  0
 29 31  1  0
 31 32  2  0
 32  9  1  0
 25 16  1  0
 32 26  1  0
 25 20  1  0
  1 33  1  0
  1 34  1  0
  1 35  1  0
  2 36  1  0
  2 37  1  0
  7 38  1  0
  7 39  1  0
  7 40  1  0
  8 41  1  0
  8 42  1  0
 15 43  1  0
 15 44  1  0
 17 45  1  0
 18 46  1  0
 19 47  1  0
 21 48  1  0
 22 49  1  0
 23 50  1  0
 24 51  1  0
 27 52  1  0
 28 53  1  0
 31 54  1  0
M  CHG  1  13  -1
M  END
>  <meeko>  (224) 
{"free_energy": -5.21, "intermolecular_energy": -7.6, "internal_energy": -1.79, "cluster_size": 167, "cluster_id": 22, "rank_in_cluster": 120}

$$$$

     RDKit          3D

 54 57  0  0  0  0  0  0  0  0999 V2000
    9.4790   42.4130   12.0250 C   0  0  0  0  0  0  0  0  0  0  0  0
    9.7610   41.0540   12.6710 C   0  0  0  0  0  0  0  0  0  0  0  0
   10.6090   41.2380   13.7930 O   0  0  0  0  0  0  0  0  0  0  0  0
   10.3010   40.6620   14.9750 C   0  0  0  0  0  0  0  0  0  0  0  0
    9.2950   40.9490   15.6270 O   0  0  0  0  0  0  0  0  0  0  0  0
   11.2710   39.7150   15.3280 N   0  0  0  0  0  0  0  0  0  0  0  0
   11.0180   38.6770   16.3340 C   0  0  0  0  0  0  0  0  0  0  0  0
   12.6090   39.7330   14.7230 C   0  0  0  0  0  0  0  0  0  0  0  0
   12.6050   39.2030   13.3090 C   0  0  0  0  0  0  0  0  0  0  0  0
   11.7200   38.3200   12.7170 C   0  0  0  0  0  0  0  0  0  0  0  0
   10.5020   37.6640   13.2860 C   0  0  0  0  0  0  0  0  0  0  0  0
    9.3770   38.1030   12.9630 O   0  0  0  0  0  0  0  0  0  0  0  0
   10.6080   36.7090   14.0860 O   0  0  0  0  0  1  0  0  0  0  0  0
   12.1490   38.0630   11.3960 N   0  0  0  0  0  0  0  0  0  0  0  0
   11.5250   37.2020   10.3880 C   0  0  0  0  0  0  0  0  0  0  0  0
   10.2570   37.7780    9.7430 C   0  0  0  0  0  0  0  0  0  0  0  0
   10.0900   39.1780    9.5940 C   0  0  0  0  0  0  0  0  0  0  0  0
    8.9310   39.7100    9.0040 C   0  0  0  0  0  0  0  0  0  0  0  0
    7.9160   38.8520    8.5520 C   0  0  0  0  0  0  0  0  0  0  0  0
    8.0570   37.4580    8.6900 C   0  0  0  0  0  0  0  0  0  0  0  0
    7.0270   36.6110    8.2320 C   0  0  0  0  0  0  0  0  0  0  0  0
    7.1460   35.2160    8.3600 C   0  0  0  0  0  0  0  0  0  0  0  0
    8.2990   34.6640    8.9470 C   0  0  0  0  0  0  0  0  0  0  0  0
    9.3310   35.5040    9.4070 C   0  0  0  0  0  0  0  0  0  0  0  0
    9.2270   36.9120    9.2860 C   0  0  0  0  0  0  0  0  0  0  0  0
   13.3090   38.7830   11.1440 C   0  0  0  0  0  0  0  0  0  0  0  0
   14.1340   38.8670   10.0030 C   0  0  0  0  0  0  0  0  0  0  0  0
   15.2670   39.6980   10.0170 C   0  0  0  0  0  0  0  0  0  0  0  0
   15.5710   40.4420   11.1690 C   0  0  0  0  0  0  0  0  0  0  0  0
   16.6590   41.2480   11.1880 F   0  0  0  0  0  0  0  0  0  0  0  0
   14.7450   40.3500   12.3060 C   0  0  0  0  0  0  0  0  0  0  0  0
   13.6000   39.5170   12.3250 C   0  0  0  0  0  0  0  0  0  0  0  0
    9.3225   43.1670   12.8105 H   0  0  0  0  0  0  0  0  0  0  0  0
   10.3353   42.7067   11.4002 H   0  0  0  0  0  0  0  0  0  0  0  0
    8.5765   42.3418   11.4002 H   0  0  0  0  0  0  0  0  0  0  0  0
    8.8144   40.5977   12.9961 H   0  0  0  0  0  0  0  0  0  0  0  0
   10.2515   40.3927   11.9415 H   0  0  0  0  0  0  0  0  0  0  0  0
   11.1231   39.1084   17.3404 H   0  0  0  0  0  0  0  0  0  0  0  0
    9.9980   38.2850   16.2078 H   0  0  0  0  0  0  0  0  0  0  0  0
   11.7432   37.8596   16.2078 H   0  0  0  0  0  0  0  0  0  0  0  0
   12.9783   40.7691   14.7115 H   0  0  0  0  0  0  0  0  0  0  0  0
   13.2597   39.0817   15.3250 H   0  0  0  0  0  0  0  0  0  0  0  0
   12.2612   37.0194    9.5913 H   0  0  0  0  0  0  0  0  0  0  0  0
   11.2159   36.2860   10.9128 H   0  0  0  0  0  0  0  0  0  0  0  0
   10.8798   39.8581    9.9456 H   0  0  0  0  0  0  0  0  0  0  0  0
    8.8190   40.7990    8.8963 H   0  0  0  0  0  0  0  0  0  0  0  0
    7.0094   39.2693    8.0895 H   0  0  0  0  0  0  0  0  0  0  0  0
    6.1261   37.0437    7.7724 H   0  0  0  0  0  0  0  0  0  0  0  0
    6.3401   34.5583    8.0023 H   0  0  0  0  0  0  0  0  0  0  0  0
    8.3946   33.5727    9.0469 H   0  0  0  0  0  0  0  0  0  0  0  0
   10.2281   35.0623    9.8655 H   0  0  0  0  0  0  0  0  0  0  0  0
   13.8907   38.2827    9.1033 H   0  0  0  0  0  0  0  0  0  0  0  0
   15.9133   39.7656    9.1294 H   0  0  0  0  0  0  0  0  0  0  0  0
   14.9952   40.9392   13.2005 H   0  0  0  0  0  0  0  0  0  0  0  0
  1  2  1  0
  2  3  1  0
  3  4  1  0
  4  5  2  0
  4  6  1  0
  6  7  1  0
  6  8  1  0
  8  9  1  0
  9 10  2  0
 10 11  1  0
 11 12  2  0
 11 13  1  0
 10 14  1  0
 14 15  1  0
 15 16  1  0
 16 17  2  0
 17 18  1  0
 18 19  2  0
 19 20  1  0
 20 21  2  0
 21 22  1  0
 22 23  2  0
 23 24  1  0
 24 25  2  0
 14 26  1  0
 26 27  2  0
 27 28  1  0
 28 29  2  0
 29 30  1  0
 29 31  1  0
 31 32  2  0
 32  9  1  0
 25 16  1  0
 32 26  1  0
 25 20  1  0
  1 33  1  0
  1 34  1  0
  1 35  1  0
  2 36  1  0
  2 37  1  0
  7 38  1  0
  7 39  1  0
  7 40  1  0
  8 41  1  0
  8 42  1  0
 15 43  1  0
 15 44  1  0
 17 45  1  0
 18 46  1  0
 19 47  1  0
 21 48  1  0
 22 49  1  0
 23 50  1  0
 24 51  1  0
 27 52  1  0
 28 53  1  0
 31 54  1  0
M  CHG  1  13  -1
M  END
>  <meeko>  (225) 
{"free_energy": -5.68, "intermolecular_energy": -8.07, "internal_energy": -2.27, "cluster_size": 167, "cluster_id": 22, "rank_in_cluster": 78}

$$$$

     RDKit          3D

 54 57  0  0  0  0  0  0  0  0999 V2000
    8.1590   37.9000    8.5800 C   0  0  0  0  0  0  0  0  0  0  0  0
    9.5900   37.6560    9.0650 C   0  0  0  0  0  0  0  0  0  0  0  0
   10.2800   38.8940    9.1290 O   0  0  0  0  0  0  0  0  0  0  0  0
   10.8910   39.2690   10.2730 C   0  0  0  0  0  0  0  0  0  0  0  0
   12.0550   38.9740   10.5480 O   0  0  0  0  0  0  0  0  0  0  0  0
   10.0220   40.0290   11.0680 N   0  0  0  0  0  0  0  0  0  0  0  0
    8.6990   40.4500   10.5940 C   0  0  0  0  0  0  0  0  0  0  0  0
   10.4100   40.4680   12.4150 C   0  0  0  0  0  0  0  0  0  0  0  0
   10.2250   39.3800   13.4470 C   0  0  0  0  0  0  0  0  0  0  0  0
   10.5880   39.3820   14.7820 C   0  0  0  0  0  0  0  0  0  0  0  0
   11.2300   40.4610   15.5950 C   0  0  0  0  0  0  0  0  0  0  0  0
   12.4770   40.5320   15.6210 O   0  0  0  0  0  0  0  0  0  0  0  0
   10.5320   41.2650   16.2510 O   0  0  0  0  0  1  0  0  0  0  0  0
   10.2750   38.1230   15.3390 N   0  0  0  0  0  0  0  0  0  0  0  0
   10.4680   37.6650   16.7180 C   0  0  0  0  0  0  0  0  0  0  0  0
    9.2940   37.9520   17.6640 C   0  0  0  0  0  0  0  0  0  0  0  0
    9.1950   39.1920   18.3420 C   0  0  0  0  0  0  0  0  0  0  0  0
    8.1220   39.4590   19.2090 C   0  0  0  0  0  0  0  0  0  0  0  0
    7.1280   38.4890   19.4160 C   0  0  0  0  0  0  0  0  0  0  0  0
    7.2050   37.2490   18.7550 C   0  0  0  0  0  0  0  0  0  0  0  0
    6.1980   36.2860   18.9750 C   0  0  0  0  0  0  0  0  0  0  0  0
    6.2550   35.0400   18.3260 C   0  0  0  0  0  0  0  0  0  0  0  0
    7.3200   34.7540   17.4540 C   0  0  0  0  0  0  0  0  0  0  0  0
    8.3290   35.7100   17.2310 C   0  0  0  0  0  0  0  0  0  0  0  0
    8.2870   36.9710   17.8760 C   0  0  0  0  0  0  0  0  0  0  0  0
    9.7120   37.3160   14.3590 C   0  0  0  0  0  0  0  0  0  0  0  0
    9.2460   35.9850   14.3910 C   0  0  0  0  0  0  0  0  0  0  0  0
    8.7040   35.4050   13.2330 C   0  0  0  0  0  0  0  0  0  0  0  0
    8.6280   36.1560   12.0470 C   0  0  0  0  0  0  0  0  0  0  0  0
    8.1040   35.6030   10.9280 F   0  0  0  0  0  0  0  0  0  0  0  0
    9.0990   37.4830   12.0220 C   0  0  0  0  0  0  0  0  0  0  0  0
    9.6570   38.0930   13.1720 C   0  0  0  0  0  0  0  0  0  0  0  0
    7.4922   38.0137    9.4475 H   0  0  0  0  0  0  0  0  0  0  0  0
    8.1291   38.8162    7.9720 H   0  0  0  0  0  0  0  0  0  0  0  0
    7.8272   37.0455    7.9720 H   0  0  0  0  0  0  0  0  0  0  0  0
    9.5662   37.1963   10.0641 H   0  0  0  0  0  0  0  0  0  0  0  0
   10.1064   36.9816    8.3661 H   0  0  0  0  0  0  0  0  0  0  0  0
    8.0490   40.6568   11.4570 H   0  0  0  0  0  0  0  0  0  0  0  0
    8.8003   41.3603    9.9848 H   0  0  0  0  0  0  0  0  0  0  0  0
    8.2556   39.6486    9.9848 H   0  0  0  0  0  0  0  0  0  0  0  0
   11.4692   40.7645   12.3993 H   0  0  0  0  0  0  0  0  0  0  0  0
    9.7614   41.3114   12.6945 H   0  0  0  0  0  0  0  0  0  0  0  0
   10.6322   36.5775   16.6972 H   0  0  0  0  0  0  0  0  0  0  0  0
   11.3271   38.2273   17.1127 H   0  0  0  0  0  0  0  0  0  0  0  0
    9.9698   39.9573   18.1874 H   0  0  0  0  0  0  0  0  0  0  0  0
    8.0606   40.4281   19.7257 H   0  0  0  0  0  0  0  0  0  0  0  0
    6.2886   38.6985   20.0953 H   0  0  0  0  0  0  0  0  0  0  0  0
    5.3648   36.5107   19.6571 H   0  0  0  0  0  0  0  0  0  0  0  0
    5.4684   34.2910   18.5001 H   0  0  0  0  0  0  0  0  0  0  0  0
    7.3650   33.7802   16.9444 H   0  0  0  0  0  0  0  0  0  0  0  0
    9.1592   35.4755   16.5485 H   0  0  0  0  0  0  0  0  0  0  0  0
    9.3072   35.4023   15.3220 H   0  0  0  0  0  0  0  0  0  0  0  0
    8.3403   34.3671   13.2536 H   0  0  0  0  0  0  0  0  0  0  0  0
    9.0319   38.0592   11.0874 H   0  0  0  0  0  0  0  0  0  0  0  0
  1  2  1  0
  2  3  1  0
  3  4  1  0
  4  5  2  0
  4  6  1  0
  6  7  1  0
  6  8  1  0
  8  9  1  0
  9 10  2  0
 10 11  1  0
 11 12  2  0
 11 13  1  0
 10 14  1  0
 14 15  1  0
 15 16  1  0
 16 17  2  0
 17 18  1  0
 18 19  2  0
 19 20  1  0
 20 21  2  0
 21 22  1  0
 22 23  2  0
 23 24  1  0
 24 25  2  0
 14 26  1  0
 26 27  2  0
 27 28  1  0
 28 29  2  0
 29 30  1  0
 29 31  1  0
 31 32  2  0
 32  9  1  0
 25 16  1  0
 32 26  1  0
 25 20  1  0
  1 33  1  0
  1 34  1  0
  1 35  1  0
  2 36  1  0
  2 37  1  0
  7 38  1  0
  7 39  1  0
  7 40  1  0
  8 41  1  0
  8 42  1  0
 15 43  1  0
 15 44  1  0
 17 45  1  0
 18 46  1  0
 19 47  1  0
 21 48  1  0
 22 49  1  0
 23 50  1  0
 24 51  1  0
 27 52  1  0
 28 53  1  0
 31 54  1  0
M  CHG  1  13  -1
M  END
>  <meeko>  (226) 
{"free_energy": -5.29, "intermolecular_energy": -7.68, "internal_energy": -1.67, "cluster_size": 25, "cluster_id": 117, "rank_in_cluster": 2}

$$$$

     RDKit          3D

 54 57  0  0  0  0  0  0  0  0999 V2000
    6.7400   35.0950   17.3080 C   0  0  0  0  0  0  0  0  0  0  0  0
    8.1290   35.7310   17.2140 C   0  0  0  0  0  0  0  0  0  0  0  0
    8.0240   36.9890   16.5680 O   0  0  0  0  0  0  0  0  0  0  0  0
    9.1350   37.7110   16.3070 C   0  0  0  0  0  0  0  0  0  0  0  0
    9.7430   38.3530   17.1650 O   0  0  0  0  0  0  0  0  0  0  0  0
    9.4790   37.6110   14.9530 N   0  0  0  0  0  0  0  0  0  0  0  0
    8.7550   36.7330   14.0260 C   0  0  0  0  0  0  0  0  0  0  0  0
   10.6090   38.3660   14.3960 C   0  0  0  0  0  0  0  0  0  0  0  0
   10.1770   39.6830   13.7960 C   0  0  0  0  0  0  0  0  0  0  0  0
    9.8870   40.8750   14.4370 C   0  0  0  0  0  0  0  0  0  0  0  0
    9.9500   41.2140   15.8930 C   0  0  0  0  0  0  0  0  0  0  0  0
    8.9120   41.6160   16.4610 O   0  0  0  0  0  0  0  0  0  0  0  0
   11.0250   41.1150   16.5240 O   0  0  0  0  0  1  0  0  0  0  0  0
    9.4640   41.8170   13.4760 N   0  0  0  0  0  0  0  0  0  0  0  0
    9.0640   43.2120   13.6820 C   0  0  0  0  0  0  0  0  0  0  0  0
    7.5530   43.4350   13.8250 C   0  0  0  0  0  0  0  0  0  0  0  0
    6.6750   43.1760   12.7430 C   0  0  0  0  0  0  0  0  0  0  0  0
    5.2900   43.3790   12.8700 C   0  0  0  0  0  0  0  0  0  0  0  0
    4.7570   43.8460   14.0820 C   0  0  0  0  0  0  0  0  0  0  0  0
    5.6080   44.1120   15.1710 C   0  0  0  0  0  0  0  0  0  0  0  0
    5.0550   44.5810   16.3800 C   0  0  0  0  0  0  0  0  0  0  0  0
    5.8860   44.8540   17.4810 C   0  0  0  0  0  0  0  0  0  0  0  0
    7.2740   44.6560   17.3750 C   0  0  0  0  0  0  0  0  0  0  0  0
    7.8330   44.1890   16.1700 C   0  0  0  0  0  0  0  0  0  0  0  0
    7.0100   43.9090   15.0510 C   0  0  0  0  0  0  0  0  0  0  0  0
    9.4830   41.2280   12.2180 C   0  0  0  0  0  0  0  0  0  0  0  0
    9.1440   41.7240   10.9420 C   0  0  0  0  0  0  0  0  0  0  0  0
    9.2680   40.8980    9.8130 C   0  0  0  0  0  0  0  0  0  0  0  0
    9.7320   39.5800    9.9620 C   0  0  0  0  0  0  0  0  0  0  0  0
    9.8570   38.7790    8.8770 F   0  0  0  0  0  0  0  0  0  0  0  0
   10.0650   39.0900   11.2400 C   0  0  0  0  0  0  0  0  0  0  0  0
    9.9440   39.8960   12.3970 C   0  0  0  0  0  0  0  0  0  0  0  0
    6.4652   34.9692   18.3657 H   0  0  0  0  0  0  0  0  0  0  0  0
    6.0044   35.7460   16.8130 H   0  0  0  0  0  0  0  0  0  0  0  0
    6.7522   34.1128   16.8130 H   0  0  0  0  0  0  0  0  0  0  0  0
    8.5390   35.8700   18.2252 H   0  0  0  0  0  0  0  0  0  0  0  0
    8.7974   35.0746   16.6375 H   0  0  0  0  0  0  0  0  0  0  0  0
    8.1574   36.0083   14.5985 H   0  0  0  0  0  0  0  0  0  0  0  0
    8.0895   37.3377   13.3924 H   0  0  0  0  0  0  0  0  0  0  0  0
    9.4754   36.1949   13.3924 H   0  0  0  0  0  0  0  0  0  0  0  0
   11.3331   38.5639   15.2000 H   0  0  0  0  0  0  0  0  0  0  0  0
   11.0559   37.7606   13.5936 H   0  0  0  0  0  0  0  0  0  0  0  0
    9.5516   43.5757   14.5985 H   0  0  0  0  0  0  0  0  0  0  0  0
    9.3730   43.7587   12.7788 H   0  0  0  0  0  0  0  0  0  0  0  0
    7.0837   42.8106   11.7894 H   0  0  0  0  0  0  0  0  0  0  0  0
    4.6236   43.1720   12.0197 H   0  0  0  0  0  0  0  0  0  0  0  0
    3.6729   44.0042   14.1806 H   0  0  0  0  0  0  0  0  0  0  0  0
    3.9688   44.7340   16.4624 H   0  0  0  0  0  0  0  0  0  0  0  0
    5.4515   45.2214   18.4224 H   0  0  0  0  0  0  0  0  0  0  0  0
    7.9252   44.8666   18.2361 H   0  0  0  0  0  0  0  0  0  0  0  0
    8.9204   44.0399   16.0965 H   0  0  0  0  0  0  0  0  0  0  0  0
    8.7827   42.7571   10.8312 H   0  0  0  0  0  0  0  0  0  0  0  0
    9.0031   41.2811    8.8165 H   0  0  0  0  0  0  0  0  0  0  0  0
   10.4277   38.0564   11.3411 H   0  0  0  0  0  0  0  0  0  0  0  0
  1  2  1  0
  2  3  1  0
  3  4  1  0
  4  5  2  0
  4  6  1  0
  6  7  1  0
  6  8  1  0
  8  9  1  0
  9 10  2  0
 10 11  1  0
 11 12  2  0
 11 13  1  0
 10 14  1  0
 14 15  1  0
 15 16  1  0
 16 17  2  0
 17 18  1  0
 18 19  2  0
 19 20  1  0
 20 21  2  0
 21 22  1  0
 22 23  2  0
 23 24  1  0
 24 25  2  0
 14 26  1  0
 26 27  2  0
 27 28  1  0
 28 29  2  0
 29 30  1  0
 29 31  1  0
 31 32  2  0
 32  9  1  0
 25 16  1  0
 32 26  1  0
 25 20  1  0
  1 33  1  0
  1 34  1  0
  1 35  1  0
  2 36  1  0
  2 37  1  0
  7 38  1  0
  7 39  1  0
  7 40  1  0
  8 41  1  0
  8 42  1  0
 15 43  1  0
 15 44  1  0
 17 45  1  0
 18 46  1  0
 19 47  1  0
 21 48  1  0
 22 49  1  0
 23 50  1  0
 24 51  1  0
 27 52  1  0
 28 53  1  0
 31 54  1  0
M  CHG  1  13  -1
M  END
>  <meeko>  (227) 
{"free_energy": -5.77, "intermolecular_energy": -8.15, "internal_energy": -1.73, "cluster_size": 35, "cluster_id": 50, "rank_in_cluster": 10}

$$$$

     RDKit          3D

 54 57  0  0  0  0  0  0  0  0999 V2000
   13.7390   37.3490   10.3850 C   0  0  0  0  0  0  0  0  0  0  0  0
   12.3200   36.7840   10.4750 C   0  0  0  0  0  0  0  0  0  0  0  0
   11.6820   37.3030   11.6310 O   0  0  0  0  0  0  0  0  0  0  0  0
   10.9720   38.4490   11.5550 C   0  0  0  0  0  0  0  0  0  0  0  0
   11.4760   39.5670   11.6770 O   0  0  0  0  0  0  0  0  0  0  0  0
    9.6200   38.1740   11.3160 N   0  0  0  0  0  0  0  0  0  0  0  0
    8.8660   38.8370   10.2460 C   0  0  0  0  0  0  0  0  0  0  0  0
    8.8770   37.2220   12.1530 C   0  0  0  0  0  0  0  0  0  0  0  0
    9.2710   37.3100   13.6080 C   0  0  0  0  0  0  0  0  0  0  0  0
    9.3320   36.3000   14.5520 C   0  0  0  0  0  0  0  0  0  0  0  0
    9.0640   34.8360   14.4010 C   0  0  0  0  0  0  0  0  0  0  0  0
    9.8020   34.0250   15.0010 O   0  0  0  0  0  0  0  0  0  0  0  0
    8.1310   34.4320   13.6740 O   0  0  0  0  0  1  0  0  0  0  0  0
    9.6890   36.8620   15.7970 N   0  0  0  0  0  0  0  0  0  0  0  0
    9.8840   36.1820   17.0800 C   0  0  0  0  0  0  0  0  0  0  0  0
    9.0390   36.7330   18.2370 C   0  0  0  0  0  0  0  0  0  0  0  0
    9.6560   37.2660   19.3970 C   0  0  0  0  0  0  0  0  0  0  0  0
    8.8860   37.7720   20.4580 C   0  0  0  0  0  0  0  0  0  0  0  0
    7.4840   37.7520   20.3810 C   0  0  0  0  0  0  0  0  0  0  0  0
    6.8480   37.2260   19.2400 C   0  0  0  0  0  0  0  0  0  0  0  0
    5.4390   37.2140   19.1800 C   0  0  0  0  0  0  0  0  0  0  0  0
    4.7830   36.6940   18.0510 C   0  0  0  0  0  0  0  0  0  0  0  0
    5.5350   36.1840   16.9770 C   0  0  0  0  0  0  0  0  0  0  0  0
    6.9420   36.1930   17.0320 C   0  0  0  0  0  0  0  0  0  0  0  0
    7.6200   36.7140   18.1620 C   0  0  0  0  0  0  0  0  0  0  0  0
    9.8550   38.2330   15.6490 C   0  0  0  0  0  0  0  0  0  0  0  0
   10.1910   39.2440   16.5730 C   0  0  0  0  0  0  0  0  0  0  0  0
   10.3030   40.5770   16.1430 C   0  0  0  0  0  0  0  0  0  0  0  0
   10.0800   40.8940   14.7920 C   0  0  0  0  0  0  0  0  0  0  0  0
   10.1900   42.1770   14.3710 F   0  0  0  0  0  0  0  0  0  0  0  0
    9.7410   39.8800   13.8760 C   0  0  0  0  0  0  0  0  0  0  0  0
    9.6140   38.5290   14.2800 C   0  0  0  0  0  0  0  0  0  0  0  0
   14.1357   37.5070   11.3987 H   0  0  0  0  0  0  0  0  0  0  0  0
   14.3830   36.6387    9.8458 H   0  0  0  0  0  0  0  0  0  0  0  0
   13.7185   38.3076    9.8458 H   0  0  0  0  0  0  0  0  0  0  0  0
   11.7512   37.0745    9.5795 H   0  0  0  0  0  0  0  0  0  0  0  0
   12.3632   35.6867   10.5388 H   0  0  0  0  0  0  0  0  0  0  0  0
    8.1096   39.5021   10.6883 H   0  0  0  0  0  0  0  0  0  0  0  0
    9.5546   39.4275    9.6238 H   0  0  0  0  0  0  0  0  0  0  0  0
    8.3685   38.0785    9.6238 H   0  0  0  0  0  0  0  0  0  0  0  0
    7.8018   37.4367   12.0640 H   0  0  0  0  0  0  0  0  0  0  0  0
    9.1143   36.2073   11.8007 H   0  0  0  0  0  0  0  0  0  0  0  0
    9.6298   35.1202   16.9463 H   0  0  0  0  0  0  0  0  0  0  0  0
   10.9352   36.3454   17.3598 H   0  0  0  0  0  0  0  0  0  0  0  0
   10.7536   37.2837   19.4674 H   0  0  0  0  0  0  0  0  0  0  0  0
    9.3818   38.1840   21.3493 H   0  0  0  0  0  0  0  0  0  0  0  0
    6.8822   38.1475   21.2125 H   0  0  0  0  0  0  0  0  0  0  0  0
    4.8513   37.6131   20.0199 H   0  0  0  0  0  0  0  0  0  0  0  0
    3.6839   36.6858   18.0073 H   0  0  0  0  0  0  0  0  0  0  0  0
    5.0228   35.7774   16.0925 H   0  0  0  0  0  0  0  0  0  0  0  0
    7.5216   35.7909   16.1880 H   0  0  0  0  0  0  0  0  0  0  0  0
   10.3652   38.9894   17.6289 H   0  0  0  0  0  0  0  0  0  0  0  0
   10.5640   41.3689   16.8605 H   0  0  0  0  0  0  0  0  0  0  0  0
    9.5708   40.1436   12.8217 H   0  0  0  0  0  0  0  0  0  0  0  0
  1  2  1  0
  2  3  1  0
  3  4  1  0
  4  5  2  0
  4  6  1  0
  6  7  1  0
  6  8  1  0
  8  9  1  0
  9 10  2  0
 10 11  1  0
 11 12  2  0
 11 13  1  0
 10 14  1  0
 14 15  1  0
 15 16  1  0
 16 17  2  0
 17 18  1  0
 18 19  2  0
 19 20  1  0
 20 21  2  0
 21 22  1  0
 22 23  2  0
 23 24  1  0
 24 25  2  0
 14 26  1  0
 26 27  2  0
 27 28  1  0
 28 29  2  0
 29 30  1  0
 29 31  1  0
 31 32  2  0
 32  9  1  0
 25 16  1  0
 32 26  1  0
 25 20  1  0
  1 33  1  0
  1 34  1  0
  1 35  1  0
  2 36  1  0
  2 37  1  0
  7 38  1  0
  7 39  1  0
  7 40  1  0
  8 41  1  0
  8 42  1  0
 15 43  1  0
 15 44  1  0
 17 45  1  0
 18 46  1  0
 19 47  1  0
 21 48  1  0
 22 49  1  0
 23 50  1  0
 24 51  1  0
 27 52  1  0
 28 53  1  0
 31 54  1  0
M  CHG  1  13  -1
M  END
>  <meeko>  (228) 
{"free_energy": -4.81, "intermolecular_energy": -7.2, "internal_energy": -1.86, "cluster_size": 136, "cluster_id": 23, "rank_in_cluster": 126}

$$$$

     RDKit          3D

 54 57  0  0  0  0  0  0  0  0999 V2000
    8.0540   35.3800   16.2180 C   0  0  0  0  0  0  0  0  0  0  0  0
    9.0810   34.3100   16.5980 C   0  0  0  0  0  0  0  0  0  0  0  0
   10.3740   34.8920   16.6270 O   0  0  0  0  0  0  0  0  0  0  0  0
   10.5840   36.0400   17.3070 C   0  0  0  0  0  0  0  0  0  0  0  0
   10.1780   36.2320   18.4540 O   0  0  0  0  0  0  0  0  0  0  0  0
   11.3170   36.9450   16.5290 N   0  0  0  0  0  0  0  0  0  0  0  0
   12.7840   36.9330   16.4920 C   0  0  0  0  0  0  0  0  0  0  0  0
   10.6470   37.9780   15.7270 C   0  0  0  0  0  0  0  0  0  0  0  0
   11.1860   38.0460   14.3170 C   0  0  0  0  0  0  0  0  0  0  0  0
   10.7100   37.4250   13.1760 C   0  0  0  0  0  0  0  0  0  0  0  0
    9.5150   36.5410   12.9990 C   0  0  0  0  0  0  0  0  0  0  0  0
    9.5570   35.3770   13.4530 O   0  0  0  0  0  0  0  0  0  0  0  0
    8.5030   36.9530   12.3920 O   0  0  0  0  0  1  0  0  0  0  0  0
   11.5710   37.7280   12.1000 N   0  0  0  0  0  0  0  0  0  0  0  0
   11.4650   37.3030   10.7010 C   0  0  0  0  0  0  0  0  0  0  0  0
   10.2290   37.8280    9.9600 C   0  0  0  0  0  0  0  0  0  0  0  0
   10.0230   39.2200    9.7850 C   0  0  0  0  0  0  0  0  0  0  0  0
    8.8920   39.7050    9.1060 C   0  0  0  0  0  0  0  0  0  0  0  0
    7.9430   38.8070    8.5910 C   0  0  0  0  0  0  0  0  0  0  0  0
    8.1240   37.4200    8.7540 C   0  0  0  0  0  0  0  0  0  0  0  0
    7.1610   36.5330    8.2300 C   0  0  0  0  0  0  0  0  0  0  0  0
    7.3200   35.1440    8.3810 C   0  0  0  0  0  0  0  0  0  0  0  0
    8.4460   34.6390    9.0560 C   0  0  0  0  0  0  0  0  0  0  0  0
    9.4110   35.5190    9.5810 C   0  0  0  0  0  0  0  0  0  0  0  0
    9.2660   36.9210    9.4380 C   0  0  0  0  0  0  0  0  0  0  0  0
   12.6000   38.5440   12.5530 C   0  0  0  0  0  0  0  0  0  0  0  0
   13.7110   39.1090   11.8940 C   0  0  0  0  0  0  0  0  0  0  0  0
   14.6100   39.9200   12.6060 C   0  0  0  0  0  0  0  0  0  0  0  0
   14.3940   40.1660   13.9730 C   0  0  0  0  0  0  0  0  0  0  0  0
   15.2550   40.9500   14.6640 F   0  0  0  0  0  0  0  0  0  0  0  0
   13.2840   39.5950   14.6260 C   0  0  0  0  0  0  0  0  0  0  0  0
   12.3650   38.7680   13.9360 C   0  0  0  0  0  0  0  0  0  0  0  0
    7.6298   35.8220   17.1316 H   0  0  0  0  0  0  0  0  0  0  0  0
    8.5451   36.1653   15.6247 H   0  0  0  0  0  0  0  0  0  0  0  0
    7.2492   34.9215   15.6247 H   0  0  0  0  0  0  0  0  0  0  0  0
    8.8384   33.9037   17.5910 H   0  0  0  0  0  0  0  0  0  0  0  0
    9.0587   33.4975   15.8568 H   0  0  0  0  0  0  0  0  0  0  0  0
   13.1767   36.9298   17.5195 H   0  0  0  0  0  0  0  0  0  0  0  0
   13.1301   36.0320   15.9644 H   0  0  0  0  0  0  0  0  0  0  0  0
   13.1448   37.8282   15.9644 H   0  0  0  0  0  0  0  0  0  0  0  0
    9.5715   37.7510   15.6844 H   0  0  0  0  0  0  0  0  0  0  0  0
   10.8327   38.9505   16.2064 H   0  0  0  0  0  0  0  0  0  0  0  0
   12.3595   37.6567   10.1674 H   0  0  0  0  0  0  0  0  0  0  0  0
   11.3735   36.2069   10.7170 H   0  0  0  0  0  0  0  0  0  0  0  0
   10.7597   39.9312   10.1868 H   0  0  0  0  0  0  0  0  0  0  0  0
    8.7501   40.7883    8.9779 H   0  0  0  0  0  0  0  0  0  0  0  0
    7.0578   39.1872    8.0600 H   0  0  0  0  0  0  0  0  0  0  0  0
    6.2818   36.9293    7.7009 H   0  0  0  0  0  0  0  0  0  0  0  0
    6.5663   34.4547    7.9726 H   0  0  0  0  0  0  0  0  0  0  0  0
    8.5729   33.5527    9.1740 H   0  0  0  0  0  0  0  0  0  0  0  0
   10.2873   35.1137   10.1081 H   0  0  0  0  0  0  0  0  0  0  0  0
   13.8736   38.9149   10.8235 H   0  0  0  0  0  0  0  0  0  0  0  0
   15.4793   40.3607   12.0961 H   0  0  0  0  0  0  0  0  0  0  0  0
   13.1277   39.7962   15.6961 H   0  0  0  0  0  0  0  0  0  0  0  0
  1  2  1  0
  2  3  1  0
  3  4  1  0
  4  5  2  0
  4  6  1  0
  6  7  1  0
  6  8  1  0
  8  9  1  0
  9 10  2  0
 10 11  1  0
 11 12  2  0
 11 13  1  0
 10 14  1  0
 14 15  1  0
 15 16  1  0
 16 17  2  0
 17 18  1  0
 18 19  2  0
 19 20  1  0
 20 21  2  0
 21 22  1  0
 22 23  2  0
 23 24  1  0
 24 25  2  0
 14 26  1  0
 26 27  2  0
 27 28  1  0
 28 29  2  0
 29 30  1  0
 29 31  1  0
 31 32  2  0
 32  9  1  0
 25 16  1  0
 32 26  1  0
 25 20  1  0
  1 33  1  0
  1 34  1  0
  1 35  1  0
  2 36  1  0
  2 37  1  0
  7 38  1  0
  7 39  1  0
  7 40  1  0
  8 41  1  0
  8 42  1  0
 15 43  1  0
 15 44  1  0
 17 45  1  0
 18 46  1  0
 19 47  1  0
 21 48  1  0
 22 49  1  0
 23 50  1  0
 24 51  1  0
 27 52  1  0
 28 53  1  0
 31 54  1  0
M  CHG  1  13  -1
M  END
>  <meeko>  (229) 
{"free_energy": -6.31, "intermolecular_energy": -8.69, "internal_energy": -2.05, "cluster_size": 263, "cluster_id": 1, "rank_in_cluster": 184}

$$$$

     RDKit          3D

 54 57  0  0  0  0  0  0  0  0999 V2000
   11.6810   34.8540   16.2970 C   0  0  0  0  0  0  0  0  0  0  0  0
   11.0750   33.5160   15.8650 C   0  0  0  0  0  0  0  0  0  0  0  0
    9.6610   33.6140   15.8880 O   0  0  0  0  0  0  0  0  0  0  0  0
    9.0690   34.7910   16.1830 C   0  0  0  0  0  0  0  0  0  0  0  0
    8.7550   35.1230   17.3280 O   0  0  0  0  0  0  0  0  0  0  0  0
    8.8810   35.5520   15.0230 N   0  0  0  0  0  0  0  0  0  0  0  0
    8.1560   36.8270   15.0340 C   0  0  0  0  0  0  0  0  0  0  0  0
    9.3820   35.0920   13.7210 C   0  0  0  0  0  0  0  0  0  0  0  0
    9.6160   36.2350   12.7610 C   0  0  0  0  0  0  0  0  0  0  0  0
   10.4030   37.3610   12.9300 C   0  0  0  0  0  0  0  0  0  0  0  0
   11.2690   37.7550   14.0840 C   0  0  0  0  0  0  0  0  0  0  0  0
   10.7860   37.7200   15.2370 O   0  0  0  0  0  0  0  0  0  0  0  0
   12.4460   38.1320   13.8970 O   0  0  0  0  0  1  0  0  0  0  0  0
   10.2650   38.1860   11.7930 N   0  0  0  0  0  0  0  0  0  0  0  0
   10.9120   39.4720   11.5170 C   0  0  0  0  0  0  0  0  0  0  0  0
   12.1470   39.3920   10.6100 C   0  0  0  0  0  0  0  0  0  0  0  0
   13.0560   38.3090   10.7140 C   0  0  0  0  0  0  0  0  0  0  0  0
   14.1880   38.2310    9.8850 C   0  0  0  0  0  0  0  0  0  0  0  0
   14.4340   39.2370    8.9370 C   0  0  0  0  0  0  0  0  0  0  0  0
   13.5470   40.3230    8.8150 C   0  0  0  0  0  0  0  0  0  0  0  0
   13.8100   41.3250    7.8570 C   0  0  0  0  0  0  0  0  0  0  0  0
   12.9390   42.4190    7.7180 C   0  0  0  0  0  0  0  0  0  0  0  0
   11.8000   42.5150    8.5380 C   0  0  0  0  0  0  0  0  0  0  0  0
   11.5320   41.5190    9.4960 C   0  0  0  0  0  0  0  0  0  0  0  0
   12.3990   40.4090    9.6490 C   0  0  0  0  0  0  0  0  0  0  0  0
    9.3900   37.5870   10.8960 C   0  0  0  0  0  0  0  0  0  0  0  0
    8.9110   37.9970    9.6350 C   0  0  0  0  0  0  0  0  0  0  0  0
    8.0210   37.1760    8.9230 C   0  0  0  0  0  0  0  0  0  0  0  0
    7.6150   35.9470    9.4730 C   0  0  0  0  0  0  0  0  0  0  0  0
    6.7600   35.1490    8.7890 F   0  0  0  0  0  0  0  0  0  0  0  0
    8.0950   35.5460   10.7340 C   0  0  0  0  0  0  0  0  0  0  0  0
    8.9880   36.3550   11.4780 C   0  0  0  0  0  0  0  0  0  0  0  0
   11.7054   34.9079   17.3954 H   0  0  0  0  0  0  0  0  0  0  0  0
   12.7046   34.9372   15.9030 H   0  0  0  0  0  0  0  0  0  0  0  0
   11.0684   35.6783   15.9030 H   0  0  0  0  0  0  0  0  0  0  0  0
   11.4101   33.2726   14.8460 H   0  0  0  0  0  0  0  0  0  0  0  0
   11.4011   32.7235   16.5546 H   0  0  0  0  0  0  0  0  0  0  0  0
    7.9786   37.1390   16.0738 H   0  0  0  0  0  0  0  0  0  0  0  0
    8.7536   37.5931   14.5182 H   0  0  0  0  0  0  0  0  0  0  0  0
    7.1921   36.7052   14.5182 H   0  0  0  0  0  0  0  0  0  0  0  0
   10.3320   34.5595   13.8755 H   0  0  0  0  0  0  0  0  0  0  0  0
    8.6194   34.4329   13.2805 H   0  0  0  0  0  0  0  0  0  0  0  0
   10.1743   40.1288   11.0328 H   0  0  0  0  0  0  0  0  0  0  0  0
   11.2651   39.8542   12.4862 H   0  0  0  0  0  0  0  0  0  0  0  0
   12.8723   37.5173   11.4553 H   0  0  0  0  0  0  0  0  0  0  0  0
   14.8812   37.3820    9.9788 H   0  0  0  0  0  0  0  0  0  0  0  0
   15.3208   39.1764    8.2890 H   0  0  0  0  0  0  0  0  0  0  0  0
   14.7008   41.2495    7.2161 H   0  0  0  0  0  0  0  0  0  0  0  0
   13.1473   43.1982    6.9700 H   0  0  0  0  0  0  0  0  0  0  0  0
   11.1170   43.3705    8.4303 H   0  0  0  0  0  0  0  0  0  0  0  0
   10.6392   41.6035   10.1331 H   0  0  0  0  0  0  0  0  0  0  0  0
    9.2338   38.9585    9.2093 H   0  0  0  0  0  0  0  0  0  0  0  0
    7.6433   37.4929    7.9397 H   0  0  0  0  0  0  0  0  0  0  0  0
    7.7689   34.5819   11.1512 H   0  0  0  0  0  0  0  0  0  0  0  0
  1  2  1  0
  2  3  1  0
  3  4  1  0
  4  5  2  0
  4  6  1  0
  6  7  1  0
  6  8  1  0
  8  9  1  0
  9 10  2  0
 10 11  1  0
 11 12  2  0
 11 13  1  0
 10 14  1  0
 14 15  1  0
 15 16  1  0
 16 17  2  0
 17 18  1  0
 18 19  2  0
 19 20  1  0
 20 21  2  0
 21 22  1  0
 22 23  2  0
 23 24  1  0
 24 25  2  0
 14 26  1  0
 26 27  2  0
 27 28  1  0
 28 29  2  0
 29 30  1  0
 29 31  1  0
 31 32  2  0
 32  9  1  0
 25 16  1  0
 32 26  1  0
 25 20  1  0
  1 33  1  0
  1 34  1  0
  1 35  1  0
  2 36  1  0
  2 37  1  0
  7 38  1  0
  7 39  1  0
  7 40  1  0
  8 41  1  0
  8 42  1  0
 15 43  1  0
 15 44  1  0
 17 45  1  0
 18 46  1  0
 19 47  1  0
 21 48  1  0
 22 49  1  0
 23 50  1  0
 24 51  1  0
 27 52  1  0
 28 53  1  0
 31 54  1  0
M  CHG  1  13  -1
M  END
>  <meeko>  (230) 
{"free_energy": -6.38, "intermolecular_energy": -8.77, "internal_energy": -1.74, "cluster_size": 251, "cluster_id": 26, "rank_in_cluster": 23}

$$$$

     RDKit          3D

 54 57  0  0  0  0  0  0  0  0999 V2000
    2.3330   37.4230   18.1980 C   0  0  0  0  0  0  0  0  0  0  0  0
    3.1850   38.4550   18.9410 C   0  0  0  0  0  0  0  0  0  0  0  0
    4.5540   38.1050   18.8190 O   0  0  0  0  0  0  0  0  0  0  0  0
    5.0160   37.5710   17.6680 C   0  0  0  0  0  0  0  0  0  0  0  0
    4.7270   38.0100   16.5540 O   0  0  0  0  0  0  0  0  0  0  0  0
    5.8520   36.4790   17.9340 N   0  0  0  0  0  0  0  0  0  0  0  0
    5.9390   35.8690   19.2650 C   0  0  0  0  0  0  0  0  0  0  0  0
    6.7120   35.9060   16.8900 C   0  0  0  0  0  0  0  0  0  0  0  0
    8.1780   36.1640   17.1510 C   0  0  0  0  0  0  0  0  0  0  0  0
    8.7630   37.1930   17.8670 C   0  0  0  0  0  0  0  0  0  0  0  0
    8.1220   38.3200   18.6140 C   0  0  0  0  0  0  0  0  0  0  0  0
    8.1600   39.4670   18.1190 O   0  0  0  0  0  0  0  0  0  0  0  0
    7.5760   38.1200   19.7210 O   0  0  0  0  0  1  0  0  0  0  0  0
   10.1660   37.0610   17.7880 N   0  0  0  0  0  0  0  0  0  0  0  0
   11.1960   37.9090   18.3950 C   0  0  0  0  0  0  0  0  0  0  0  0
   12.3330   38.3200   17.4500 C   0  0  0  0  0  0  0  0  0  0  0  0
   13.6880   38.1720   17.8380 C   0  0  0  0  0  0  0  0  0  0  0  0
   14.7320   38.5470   16.9760 C   0  0  0  0  0  0  0  0  0  0  0  0
   14.4410   39.0790   15.7090 C   0  0  0  0  0  0  0  0  0  0  0  0
   13.1030   39.2360   15.3020 C   0  0  0  0  0  0  0  0  0  0  0  0
   12.8290   39.7720   14.0260 C   0  0  0  0  0  0  0  0  0  0  0  0
   11.5000   39.9390   13.5980 C   0  0  0  0  0  0  0  0  0  0  0  0
   10.4400   39.5690   14.4460 C   0  0  0  0  0  0  0  0  0  0  0  0
   10.7070   39.0340   15.7210 C   0  0  0  0  0  0  0  0  0  0  0  0
   12.0400   38.8590   16.1680 C   0  0  0  0  0  0  0  0  0  0  0  0
   10.4780   35.9470   17.0200 C   0  0  0  0  0  0  0  0  0  0  0  0
   11.7140   35.3910   16.6290 C   0  0  0  0  0  0  0  0  0  0  0  0
   11.7420   34.2290   15.8410 C   0  0  0  0  0  0  0  0  0  0  0  0
   10.5350   33.6250   15.4480 C   0  0  0  0  0  0  0  0  0  0  0  0
   10.5550   32.5020   14.6910 F   0  0  0  0  0  0  0  0  0  0  0  0
    9.3050   34.1880   15.8380 C   0  0  0  0  0  0  0  0  0  0  0  0
    9.2450   35.3620   16.6270 C   0  0  0  0  0  0  0  0  0  0  0  0
    1.8084   36.7876   18.9267 H   0  0  0  0  0  0  0  0  0  0  0  0
    1.5965   37.9417   17.5667 H   0  0  0  0  0  0  0  0  0  0  0  0
    2.9818   36.7981   17.5667 H   0  0  0  0  0  0  0  0  0  0  0  0
    3.0197   39.4511   18.5047 H   0  0  0  0  0  0  0  0  0  0  0  0
    2.9014   38.4719   20.0037 H   0  0  0  0  0  0  0  0  0  0  0  0
    5.8279   36.6482   20.0334 H   0  0  0  0  0  0  0  0  0  0  0  0
    5.1380   35.1238   19.3799 H   0  0  0  0  0  0  0  0  0  0  0  0
    6.9163   35.3775   19.3799 H   0  0  0  0  0  0  0  0  0  0  0  0
    6.5453   34.8194   16.8509 H   0  0  0  0  0  0  0  0  0  0  0  0
    6.4498   36.3865   15.9359 H   0  0  0  0  0  0  0  0  0  0  0  0
   10.7109   38.8245   18.7646 H   0  0  0  0  0  0  0  0  0  0  0  0
   11.6589   37.3095   19.1927 H   0  0  0  0  0  0  0  0  0  0  0  0
   13.9258   37.7574   18.8287 H   0  0  0  0  0  0  0  0  0  0  0  0
   15.7780   38.4239   17.2935 H   0  0  0  0  0  0  0  0  0  0  0  0
   15.2590   39.3729   15.0348 H   0  0  0  0  0  0  0  0  0  0  0  0
   13.6583   40.0604   13.3633 H   0  0  0  0  0  0  0  0  0  0  0  0
   11.2896   40.3578   12.6028 H   0  0  0  0  0  0  0  0  0  0  0  0
    9.3999   39.6980   14.1121 H   0  0  0  0  0  0  0  0  0  0  0  0
    9.8714   38.7488   16.3771 H   0  0  0  0  0  0  0  0  0  0  0  0
   12.6552   35.8672   16.9411 H   0  0  0  0  0  0  0  0  0  0  0  0
   12.7039   33.7935   15.5327 H   0  0  0  0  0  0  0  0  0  0  0  0
    8.3687   33.7045   15.5223 H   0  0  0  0  0  0  0  0  0  0  0  0
  1  2  1  0
  2  3  1  0
  3  4  1  0
  4  5  2  0
  4  6  1  0
  6  7  1  0
  6  8  1  0
  8  9  1  0
  9 10  2  0
 10 11  1  0
 11 12  2  0
 11 13  1  0
 10 14  1  0
 14 15  1  0
 15 16  1  0
 16 17  2  0
 17 18  1  0
 18 19  2  0
 19 20  1  0
 20 21  2  0
 21 22  1  0
 22 23  2  0
 23 24  1  0
 24 25  2  0
 14 26  1  0
 26 27  2  0
 27 28  1  0
 28 29  2  0
 29 30  1  0
 29 31  1  0
 31 32  2  0
 32  9  1  0
 25 16  1  0
 32 26  1  0
 25 20  1  0
  1 33  1  0
  1 34  1  0
  1 35  1  0
  2 36  1  0
  2 37  1  0
  7 38  1  0
  7 39  1  0
  7 40  1  0
  8 41  1  0
  8 42  1  0
 15 43  1  0
 15 44  1  0
 17 45  1  0
 18 46  1  0
 19 47  1  0
 21 48  1  0
 22 49  1  0
 23 50  1  0
 24 51  1  0
 27 52  1  0
 28 53  1  0
 31 54  1  0
M  CHG  1  13  -1
M  END
>  <meeko>  (231) 
{"free_energy": -5.69, "intermolecular_energy": -8.07, "internal_energy": -1.81, "cluster_size": 20, "cluster_id": 81, "rank_in_cluster": 2}

$$$$

     RDKit          3D

 54 57  0  0  0  0  0  0  0  0999 V2000
   13.0510   34.7910   16.6040 C   0  0  0  0  0  0  0  0  0  0  0  0
   11.8240   34.2880   15.8390 C   0  0  0  0  0  0  0  0  0  0  0  0
   11.3820   35.2990   14.9480 O   0  0  0  0  0  0  0  0  0  0  0  0
   10.5700   36.2840   15.3910 C   0  0  0  0  0  0  0  0  0  0  0  0
   10.9270   37.1440   16.1970 O   0  0  0  0  0  0  0  0  0  0  0  0
    9.3030   36.1780   14.8040 N   0  0  0  0  0  0  0  0  0  0  0  0
    8.0700   36.4340   15.5560 C   0  0  0  0  0  0  0  0  0  0  0  0
    9.1460   35.7740   13.4000 C   0  0  0  0  0  0  0  0  0  0  0  0
    9.2250   36.9490   12.4540 C   0  0  0  0  0  0  0  0  0  0  0  0
    9.6420   38.2430   12.7120 C   0  0  0  0  0  0  0  0  0  0  0  0
   10.1640   38.8420   13.9800 C   0  0  0  0  0  0  0  0  0  0  0  0
    9.3490   39.1700   14.8690 O   0  0  0  0  0  0  0  0  0  0  0  0
   11.3900   39.0270   14.1380 O   0  0  0  0  0  1  0  0  0  0  0  0
    9.4830   39.0130   11.5400 N   0  0  0  0  0  0  0  0  0  0  0  0
    9.8000   40.4290   11.3320 C   0  0  0  0  0  0  0  0  0  0  0  0
   10.9170   40.6970   10.3140 C   0  0  0  0  0  0  0  0  0  0  0  0
   10.8780   41.8400    9.4770 C   0  0  0  0  0  0  0  0  0  0  0  0
   11.8980   42.0890    8.5430 C   0  0  0  0  0  0  0  0  0  0  0  0
   12.9770   41.1980    8.4280 C   0  0  0  0  0  0  0  0  0  0  0  0
   13.0380   40.0540    9.2470 C   0  0  0  0  0  0  0  0  0  0  0  0
   14.1290   39.1700    9.1170 C   0  0  0  0  0  0  0  0  0  0  0  0
   14.2110   38.0220    9.9240 C   0  0  0  0  0  0  0  0  0  0  0  0
   13.2000   37.7550   10.8650 C   0  0  0  0  0  0  0  0  0  0  0  0
   12.1080   38.6340   10.9990 C   0  0  0  0  0  0  0  0  0  0  0  0
   12.0100   39.7960   10.1940 C   0  0  0  0  0  0  0  0  0  0  0  0
    8.9640   38.2120   10.5320 C   0  0  0  0  0  0  0  0  0  0  0  0
    8.6120   38.4920    9.1960 C   0  0  0  0  0  0  0  0  0  0  0  0
    8.1060   37.4710    8.3750 C   0  0  0  0  0  0  0  0  0  0  0  0
    7.9560   36.1720    8.8920 C   0  0  0  0  0  0  0  0  0  0  0  0
    7.4730   35.1820    8.1040 F   0  0  0  0  0  0  0  0  0  0  0  0
    8.3060   35.9000   10.2280 C   0  0  0  0  0  0  0  0  0  0  0  0
    8.8120   36.9110   11.0820 C   0  0  0  0  0  0  0  0  0  0  0  0
   12.8654   34.7149   17.6855 H   0  0  0  0  0  0  0  0  0  0  0  0
   13.9253   34.1787   16.3381 H   0  0  0  0  0  0  0  0  0  0  0  0
   13.2439   35.8408   16.3381 H   0  0  0  0  0  0  0  0  0  0  0  0
   12.0906   33.3860   15.2686 H   0  0  0  0  0  0  0  0  0  0  0  0
   11.0202   34.0449   16.5494 H   0  0  0  0  0  0  0  0  0  0  0  0
    8.2824   36.3899   16.6344 H   0  0  0  0  0  0  0  0  0  0  0  0
    7.6840   37.4314   15.2988 H   0  0  0  0  0  0  0  0  0  0  0  0
    7.3189   35.6726   15.2988 H   0  0  0  0  0  0  0  0  0  0  0  0
    9.9438   35.0606   13.1457 H   0  0  0  0  0  0  0  0  0  0  0  0
    8.1506   35.3190   13.2897 H   0  0  0  0  0  0  0  0  0  0  0  0
    8.8888   40.9355   10.9811 H   0  0  0  0  0  0  0  0  0  0  0  0
   10.1642   40.8093   12.2978 H   0  0  0  0  0  0  0  0  0  0  0  0
   10.0362   42.5432    9.5598 H   0  0  0  0  0  0  0  0  0  0  0  0
   11.8511   42.9818    7.9021 H   0  0  0  0  0  0  0  0  0  0  0  0
   13.7756   41.3938    7.6973 H   0  0  0  0  0  0  0  0  0  0  0  0
   14.9191   39.3797    8.3810 H   0  0  0  0  0  0  0  0  0  0  0  0
   15.0633   37.3344    9.8200 H   0  0  0  0  0  0  0  0  0  0  0  0
   13.2626   36.8574   11.4977 H   0  0  0  0  0  0  0  0  0  0  0  0
   11.3220   38.4161   11.7371 H   0  0  0  0  0  0  0  0  0  0  0  0
    8.7336   39.5097    8.7967 H   0  0  0  0  0  0  0  0  0  0  0  0
    7.8284   37.6865    7.3326 H   0  0  0  0  0  0  0  0  0  0  0  0
    8.1838   34.8788   10.6181 H   0  0  0  0  0  0  0  0  0  0  0  0
  1  2  1  0
  2  3  1  0
  3  4  1  0
  4  5  2  0
  4  6  1  0
  6  7  1  0
  6  8  1  0
  8  9  1  0
  9 10  2  0
 10 11  1  0
 11 12  2  0
 11 13  1  0
 10 14  1  0
 14 15  1  0
 15 16  1  0
 16 17  2  0
 17 18  1  0
 18 19  2  0
 19 20  1  0
 20 21  2  0
 21 22  1  0
 22 23  2  0
 23 24  1  0
 24 25  2  0
 14 26  1  0
 26 27  2  0
 27 28  1  0
 28 29  2  0
 29 30  1  0
 29 31  1  0
 31 32  2  0
 32  9  1  0
 25 16  1  0
 32 26  1  0
 25 20  1  0
  1 33  1  0
  1 34  1  0
  1 35  1  0
  2 36  1  0
  2 37  1  0
  7 38  1  0
  7 39  1  0
  7 40  1  0
  8 41  1  0
  8 42  1  0
 15 43  1  0
 15 44  1  0
 17 45  1  0
 18 46  1  0
 19 47  1  0
 21 48  1  0
 22 49  1  0
 23 50  1  0
 24 51  1  0
 27 52  1  0
 28 53  1  0
 31 54  1  0
M  CHG  1  13  -1
M  END
>  <meeko>  (232) 
{"free_energy": -6.4, "intermolecular_energy": -8.79, "internal_energy": -1.53, "cluster_size": 251, "cluster_id": 26, "rank_in_cluster": 21}

$$$$

     RDKit          3D

 54 57  0  0  0  0  0  0  0  0999 V2000
   15.0740   40.0200    8.1160 C   0  0  0  0  0  0  0  0  0  0  0  0
   13.7280   40.6940    7.8360 C   0  0  0  0  0  0  0  0  0  0  0  0
   12.7520   40.1750    8.7260 O   0  0  0  0  0  0  0  0  0  0  0  0
   12.0060   41.0150    9.4740 C   0  0  0  0  0  0  0  0  0  0  0  0
   11.6600   42.1350    9.0960 O   0  0  0  0  0  0  0  0  0  0  0  0
   11.6920   40.4270   10.7070 N   0  0  0  0  0  0  0  0  0  0  0  0
   12.5230   39.3760   11.3040 C   0  0  0  0  0  0  0  0  0  0  0  0
   10.4880   40.8180   11.4530 C   0  0  0  0  0  0  0  0  0  0  0  0
   10.1040   39.7950   12.4960 C   0  0  0  0  0  0  0  0  0  0  0  0
   10.2220   39.8750   13.8720 C   0  0  0  0  0  0  0  0  0  0  0  0
   10.7240   40.9980   14.7230 C   0  0  0  0  0  0  0  0  0  0  0  0
    9.9240   41.5730   15.4920 O   0  0  0  0  0  0  0  0  0  0  0  0
   11.9170   41.3660   14.6520 O   0  0  0  0  0  1  0  0  0  0  0  0
    9.7940   38.6530   14.4360 N   0  0  0  0  0  0  0  0  0  0  0  0
    9.7300   38.2770   15.8510 C   0  0  0  0  0  0  0  0  0  0  0  0
    9.0700   36.9190   16.1280 C   0  0  0  0  0  0  0  0  0  0  0  0
    7.6820   36.8280   16.3990 C   0  0  0  0  0  0  0  0  0  0  0  0
    7.0740   35.5860   16.6520 C   0  0  0  0  0  0  0  0  0  0  0  0
    7.8440   34.4120   16.6430 C   0  0  0  0  0  0  0  0  0  0  0  0
    9.2250   34.4770   16.3780 C   0  0  0  0  0  0  0  0  0  0  0  0
    9.9830   33.2870   16.3720 C   0  0  0  0  0  0  0  0  0  0  0  0
   11.3640   33.3280   16.1110 C   0  0  0  0  0  0  0  0  0  0  0  0
   11.9910   34.5600   15.8530 C   0  0  0  0  0  0  0  0  0  0  0  0
   11.2400   35.7510   15.8580 C   0  0  0  0  0  0  0  0  0  0  0  0
    9.8480   35.7290   16.1190 C   0  0  0  0  0  0  0  0  0  0  0  0
    9.4040   37.7920   13.4190 C   0  0  0  0  0  0  0  0  0  0  0  0
    8.9180   36.4680   13.4440 C   0  0  0  0  0  0  0  0  0  0  0  0
    8.5840   35.8220   12.2420 C   0  0  0  0  0  0  0  0  0  0  0  0
    8.7340   36.5010   11.0210 C   0  0  0  0  0  0  0  0  0  0  0  0
    8.4100   35.8850    9.8590 F   0  0  0  0  0  0  0  0  0  0  0  0
    9.2230   37.8220   11.0040 C   0  0  0  0  0  0  0  0  0  0  0  0
    9.5750   38.4970   12.1980 C   0  0  0  0  0  0  0  0  0  0  0  0
   15.2267   39.9435    9.2027 H   0  0  0  0  0  0  0  0  0  0  0  0
   15.0790   39.0131    7.6733 H   0  0  0  0  0  0  0  0  0  0  0  0
   15.8833   40.6192    7.6733 H   0  0  0  0  0  0  0  0  0  0  0  0
   13.8220   41.7797    7.9856 H   0  0  0  0  0  0  0  0  0  0  0  0
   13.4241   40.4952    6.7977 H   0  0  0  0  0  0  0  0  0  0  0  0
   12.4689   39.4444   12.4005 H   0  0  0  0  0  0  0  0  0  0  0  0
   12.1571   38.3907   10.9796 H   0  0  0  0  0  0  0  0  0  0  0  0
   13.5662   39.5048   10.9796 H   0  0  0  0  0  0  0  0  0  0  0  0
   10.6780   41.7792   11.9530 H   0  0  0  0  0  0  0  0  0  0  0  0
    9.6576   40.8962   10.7358 H   0  0  0  0  0  0  0  0  0  0  0  0
   10.7573   38.2443   16.2430 H   0  0  0  0  0  0  0  0  0  0  0  0
    9.1007   39.0329   16.3437 H   0  0  0  0  0  0  0  0  0  0  0  0
    7.0713   37.7428   16.4116 H   0  0  0  0  0  0  0  0  0  0  0  0
    5.9945   35.5339   16.8571 H   0  0  0  0  0  0  0  0  0  0  0  0
    7.3678   33.4408   16.8431 H   0  0  0  0  0  0  0  0  0  0  0  0
    9.4917   32.3234   16.5723 H   0  0  0  0  0  0  0  0  0  0  0  0
   11.9525   32.3987   16.1086 H   0  0  0  0  0  0  0  0  0  0  0  0
   13.0710   34.5933   15.6467 H   0  0  0  0  0  0  0  0  0  0  0  0
   11.7402   36.7098   15.6568 H   0  0  0  0  0  0  0  0  0  0  0  0
    8.8007   35.9422   14.4031 H   0  0  0  0  0  0  0  0  0  0  0  0
    8.2066   34.7889   12.2566 H   0  0  0  0  0  0  0  0  0  0  0  0
    9.3340   38.3413   10.0407 H   0  0  0  0  0  0  0  0  0  0  0  0
  1  2  1  0
  2  3  1  0
  3  4  1  0
  4  5  2  0
  4  6  1  0
  6  7  1  0
  6  8  1  0
  8  9  1  0
  9 10  2  0
 10 11  1  0
 11 12  2  0
 11 13  1  0
 10 14  1  0
 14 15  1  0
 15 16  1  0
 16 17  2  0
 17 18  1  0
 18 19  2  0
 19 20  1  0
 20 21  2  0
 21 22  1  0
 22 23  2  0
 23 24  1  0
 24 25  2  0
 14 26  1  0
 26 27  2  0
 27 28  1  0
 28 29  2  0
 29 30  1  0
 29 31  1  0
 31 32  2  0
 32  9  1  0
 25 16  1  0
 32 26  1  0
 25 20  1  0
  1 33  1  0
  1 34  1  0
  1 35  1  0
  2 36  1  0
  2 37  1  0
  7 38  1  0
  7 39  1  0
  7 40  1  0
  8 41  1  0
  8 42  1  0
 15 43  1  0
 15 44  1  0
 17 45  1  0
 18 46  1  0
 19 47  1  0
 21 48  1  0
 22 49  1  0
 23 50  1  0
 24 51  1  0
 27 52  1  0
 28 53  1  0
 31 54  1  0
M  CHG  1  13  -1
M  END
>  <meeko>  (233) 
{"free_energy": -5.78, "intermolecular_energy": -8.16, "internal_energy": -1.16, "cluster_size": 253, "cluster_id": 8, "rank_in_cluster": 181}

$$$$

     RDKit          3D

 54 57  0  0  0  0  0  0  0  0999 V2000
   16.4780   35.4910   17.0680 C   0  0  0  0  0  0  0  0  0  0  0  0
   16.6490   36.6840   16.1240 C   0  0  0  0  0  0  0  0  0  0  0  0
   15.4320   37.4100   16.0650 O   0  0  0  0  0  0  0  0  0  0  0  0
   14.9090   37.9470   17.1870 C   0  0  0  0  0  0  0  0  0  0  0  0
   15.4050   38.9120   17.7710 O   0  0  0  0  0  0  0  0  0  0  0  0
   13.7480   37.2600   17.5660 N   0  0  0  0  0  0  0  0  0  0  0  0
   13.1290   37.4420   18.8840 C   0  0  0  0  0  0  0  0  0  0  0  0
   13.1060   36.2950   16.6650 C   0  0  0  0  0  0  0  0  0  0  0  0
   11.8550   36.8530   16.0270 C   0  0  0  0  0  0  0  0  0  0  0  0
   11.7260   37.9340   15.1730 C   0  0  0  0  0  0  0  0  0  0  0  0
   12.7790   38.8370   14.6110 C   0  0  0  0  0  0  0  0  0  0  0  0
   12.8800   39.9970   15.0640 O   0  0  0  0  0  0  0  0  0  0  0  0
   13.5300   38.4430   13.6920 O   0  0  0  0  0  1  0  0  0  0  0  0
   10.3580   38.1230   14.8820 N   0  0  0  0  0  0  0  0  0  0  0  0
    9.7420   39.1350   14.0190 C   0  0  0  0  0  0  0  0  0  0  0  0
   10.1860   39.0860   12.5510 C   0  0  0  0  0  0  0  0  0  0  0  0
   11.0550   40.0730   12.0220 C   0  0  0  0  0  0  0  0  0  0  0  0
   11.4640   40.0320   10.6780 C   0  0  0  0  0  0  0  0  0  0  0  0
   11.0090   39.0050    9.8360 C   0  0  0  0  0  0  0  0  0  0  0  0
   10.1430   38.0140   10.3370 C   0  0  0  0  0  0  0  0  0  0  0  0
    9.6960   36.9900    9.4770 C   0  0  0  0  0  0  0  0  0  0  0  0
    8.8300   35.9900    9.9560 C   0  0  0  0  0  0  0  0  0  0  0  0
    8.4110   36.0120   11.2980 C   0  0  0  0  0  0  0  0  0  0  0  0
    8.8530   37.0330   12.1610 C   0  0  0  0  0  0  0  0  0  0  0  0
    9.7250   38.0480   11.6960 C   0  0  0  0  0  0  0  0  0  0  0  0
    9.6110   37.1620   15.5510 C   0  0  0  0  0  0  0  0  0  0  0  0
    8.2230   36.9230   15.6080 C   0  0  0  0  0  0  0  0  0  0  0  0
    7.7270   35.8530   16.3710 C   0  0  0  0  0  0  0  0  0  0  0  0
    8.6200   35.0250   17.0730 C   0  0  0  0  0  0  0  0  0  0  0  0
    8.1480   33.9890   17.8070 F   0  0  0  0  0  0  0  0  0  0  0  0
   10.0050   35.2720   17.0140 C   0  0  0  0  0  0  0  0  0  0  0  0
   10.5340   36.3460   16.2590 C   0  0  0  0  0  0  0  0  0  0  0  0
   16.5278   35.8383   18.1105 H   0  0  0  0  0  0  0  0  0  0  0  0
   15.5026   35.0162   16.8859 H   0  0  0  0  0  0  0  0  0  0  0  0
   17.2807   34.7613   16.8859 H   0  0  0  0  0  0  0  0  0  0  0  0
   17.4499   37.3382   16.4991 H   0  0  0  0  0  0  0  0  0  0  0  0
   16.9143   36.3248   15.1187 H   0  0  0  0  0  0  0  0  0  0  0  0
   13.8680   37.2247   19.6693 H   0  0  0  0  0  0  0  0  0  0  0  0
   12.7809   38.4805   18.9853 H   0  0  0  0  0  0  0  0  0  0  0  0
   12.2742   36.7572   18.9853 H   0  0  0  0  0  0  0  0  0  0  0  0
   13.8177   36.0241   15.8712 H   0  0  0  0  0  0  0  0  0  0  0  0
   12.8175   35.4170   17.2615 H   0  0  0  0  0  0  0  0  0  0  0  0
    8.6515   38.9944   14.0515 H   0  0  0  0  0  0  0  0  0  0  0  0
   10.0657   40.1118   14.4078 H   0  0  0  0  0  0  0  0  0  0  0  0
   11.4147   40.8833   12.6732 H   0  0  0  0  0  0  0  0  0  0  0  0
   12.1410   40.8051   10.2856 H   0  0  0  0  0  0  0  0  0  0  0  0
   11.3292   38.9744    8.7841 H   0  0  0  0  0  0  0  0  0  0  0  0
   10.0256   36.9729    8.4277 H   0  0  0  0  0  0  0  0  0  0  0  0
    8.4817   35.1931    9.2825 H   0  0  0  0  0  0  0  0  0  0  0  0
    7.7360   35.2294   11.6747 H   0  0  0  0  0  0  0  0  0  0  0  0
    8.5173   37.0426   13.2085 H   0  0  0  0  0  0  0  0  0  0  0  0
    7.5291   37.5736   15.0556 H   0  0  0  0  0  0  0  0  0  0  0  0
    6.6444   35.6639   16.4189 H   0  0  0  0  0  0  0  0  0  0  0  0
   10.6919   34.6149   17.5676 H   0  0  0  0  0  0  0  0  0  0  0  0
  1  2  1  0
  2  3  1  0
  3  4  1  0
  4  5  2  0
  4  6  1  0
  6  7  1  0
  6  8  1  0
  8  9  1  0
  9 10  2  0
 10 11  1  0
 11 12  2  0
 11 13  1  0
 10 14  1  0
 14 15  1  0
 15 16  1  0
 16 17  2  0
 17 18  1  0
 18 19  2  0
 19 20  1  0
 20 21  2  0
 21 22  1  0
 22 23  2  0
 23 24  1  0
 24 25  2  0
 14 26  1  0
 26 27  2  0
 27 28  1  0
 28 29  2  0
 29 30  1  0
 29 31  1  0
 31 32  2  0
 32  9  1  0
 25 16  1  0
 32 26  1  0
 25 20  1  0
  1 33  1  0
  1 34  1  0
  1 35  1  0
  2 36  1  0
  2 37  1  0
  7 38  1  0
  7 39  1  0
  7 40  1  0
  8 41  1  0
  8 42  1  0
 15 43  1  0
 15 44  1  0
 17 45  1  0
 18 46  1  0
 19 47  1  0
 21 48  1  0
 22 49  1  0
 23 50  1  0
 24 51  1  0
 27 52  1  0
 28 53  1  0
 31 54  1  0
M  CHG  1  13  -1
M  END
>  <meeko>  (234) 
{"free_energy": -4.64, "intermolecular_energy": -7.02, "internal_energy": -2.04, "cluster_size": 160, "cluster_id": 12, "rank_in_cluster": 151}

$$$$

     RDKit          3D

 54 57  0  0  0  0  0  0  0  0999 V2000
   15.1930   38.7070   12.6260 C   0  0  0  0  0  0  0  0  0  0  0  0
   13.6740   38.6760   12.4360 C   0  0  0  0  0  0  0  0  0  0  0  0
   13.3590   39.1050   11.1210 O   0  0  0  0  0  0  0  0  0  0  0  0
   13.2360   40.4220   10.8510 C   0  0  0  0  0  0  0  0  0  0  0  0
   13.7760   41.3050   11.5200 O   0  0  0  0  0  0  0  0  0  0  0  0
   12.4300   40.6190    9.7220 N   0  0  0  0  0  0  0  0  0  0  0  0
   12.9950   40.7790    8.3780 C   0  0  0  0  0  0  0  0  0  0  0  0
   10.9680   40.7050    9.8360 C   0  0  0  0  0  0  0  0  0  0  0  0
   10.4270   39.8300   10.9430 C   0  0  0  0  0  0  0  0  0  0  0  0
   10.3590   40.0920   12.3000 C   0  0  0  0  0  0  0  0  0  0  0  0
   10.7640   41.3180   13.0560 C   0  0  0  0  0  0  0  0  0  0  0  0
   10.0240   42.3240   13.0090 O   0  0  0  0  0  0  0  0  0  0  0  0
   11.8320   41.3410   13.7060 O   0  0  0  0  0  1  0  0  0  0  0  0
    9.8370   38.9570   12.9560 N   0  0  0  0  0  0  0  0  0  0  0  0
    9.5760   38.7720   14.3860 C   0  0  0  0  0  0  0  0  0  0  0  0
   10.4380   37.7000   15.0660 C   0  0  0  0  0  0  0  0  0  0  0  0
   11.8280   37.8980   15.2530 C   0  0  0  0  0  0  0  0  0  0  0  0
   12.6220   36.9190   15.8760 C   0  0  0  0  0  0  0  0  0  0  0  0
   12.0390   35.7210   16.3210 C   0  0  0  0  0  0  0  0  0  0  0  0
   10.6600   35.5000   16.1450 C   0  0  0  0  0  0  0  0  0  0  0  0
   10.0910   34.2920   16.5970 C   0  0  0  0  0  0  0  0  0  0  0  0
    8.7160   34.0490   16.4320 C   0  0  0  0  0  0  0  0  0  0  0  0
    7.9050   35.0170   15.8130 C   0  0  0  0  0  0  0  0  0  0  0  0
    8.4670   36.2250   15.3580 C   0  0  0  0  0  0  0  0  0  0  0  0
    9.8500   36.4860   15.5170 C   0  0  0  0  0  0  0  0  0  0  0  0
    9.5710   37.9680   12.0180 C   0  0  0  0  0  0  0  0  0  0  0  0
    9.0620   36.6600   12.1500 C   0  0  0  0  0  0  0  0  0  0  0  0
    8.8810   35.8590   11.0100 C   0  0  0  0  0  0  0  0  0  0  0  0
    9.2070   36.3700    9.7420 C   0  0  0  0  0  0  0  0  0  0  0  0
    9.0310   35.6050    8.6380 F   0  0  0  0  0  0  0  0  0  0  0  0
    9.7180   37.6770    9.6180 C   0  0  0  0  0  0  0  0  0  0  0  0
    9.9180   38.5040   10.7490 C   0  0  0  0  0  0  0  0  0  0  0  0
   15.4281   38.7118   13.7006 H   0  0  0  0  0  0  0  0  0  0  0  0
   15.6394   37.8178   12.1570 H   0  0  0  0  0  0  0  0  0  0  0  0
   15.6028   39.6137   12.1570 H   0  0  0  0  0  0  0  0  0  0  0  0
   13.3053   37.6506   12.5866 H   0  0  0  0  0  0  0  0  0  0  0  0
   13.1966   39.3451   13.1671 H   0  0  0  0  0  0  0  0  0  0  0  0
   14.0506   41.0779    8.4572 H   0  0  0  0  0  0  0  0  0  0  0  0
   12.9238   39.8254    7.8344 H   0  0  0  0  0  0  0  0  0  0  0  0
   12.4343   41.5537    7.8344 H   0  0  0  0  0  0  0  0  0  0  0  0
   10.6900   41.7491   10.0424 H   0  0  0  0  0  0  0  0  0  0  0  0
   10.5351   40.3542    8.8875 H   0  0  0  0  0  0  0  0  0  0  0  0
    9.7590   39.7305   14.8937 H   0  0  0  0  0  0  0  0  0  0  0  0
    8.5343   38.4283   14.4678 H   0  0  0  0  0  0  0  0  0  0  0  0
   12.2935   38.8321   14.9055 H   0  0  0  0  0  0  0  0  0  0  0  0
   13.6995   37.0912   16.0149 H   0  0  0  0  0  0  0  0  0  0  0  0
   12.6606   34.9549   16.8074 H   0  0  0  0  0  0  0  0  0  0  0  0
   10.7260   33.5356   17.0813 H   0  0  0  0  0  0  0  0  0  0  0  0
    8.2761   33.1049   16.7859 H   0  0  0  0  0  0  0  0  0  0  0  0
    6.8287   34.8298   15.6840 H   0  0  0  0  0  0  0  0  0  0  0  0
    7.8245   36.9749   14.8734 H   0  0  0  0  0  0  0  0  0  0  0  0
    8.8067   36.2667   13.1451 H   0  0  0  0  0  0  0  0  0  0  0  0
    8.4861   34.8371   11.1094 H   0  0  0  0  0  0  0  0  0  0  0  0
    9.9674   38.0638    8.6189 H   0  0  0  0  0  0  0  0  0  0  0  0
  1  2  1  0
  2  3  1  0
  3  4  1  0
  4  5  2  0
  4  6  1  0
  6  7  1  0
  6  8  1  0
  8  9  1  0
  9 10  2  0
 10 11  1  0
 11 12  2  0
 11 13  1  0
 10 14  1  0
 14 15  1  0
 15 16  1  0
 16 17  2  0
 17 18  1  0
 18 19  2  0
 19 20  1  0
 20 21  2  0
 21 22  1  0
 22 23  2  0
 23 24  1  0
 24 25  2  0
 14 26  1  0
 26 27  2  0
 27 28  1  0
 28 29  2  0
 29 30  1  0
 29 31  1  0
 31 32  2  0
 32  9  1  0
 25 16  1  0
 32 26  1  0
 25 20  1  0
  1 33  1  0
  1 34  1  0
  1 35  1  0
  2 36  1  0
  2 37  1  0
  7 38  1  0
  7 39  1  0
  7 40  1  0
  8 41  1  0
  8 42  1  0
 15 43  1  0
 15 44  1  0
 17 45  1  0
 18 46  1  0
 19 47  1  0
 21 48  1  0
 22 49  1  0
 23 50  1  0
 24 51  1  0
 27 52  1  0
 28 53  1  0
 31 54  1  0
M  CHG  1  13  -1
M  END
>  <meeko>  (235) 
{"free_energy": -4.57, "intermolecular_energy": -6.96, "internal_energy": -2.47, "cluster_size": 130, "cluster_id": 32, "rank_in_cluster": 125}

$$$$

     RDKit          3D

 54 57  0  0  0  0  0  0  0  0999 V2000
   15.2710   36.1600   18.0700 C   0  0  0  0  0  0  0  0  0  0  0  0
   14.3700   35.2970   17.1830 C   0  0  0  0  0  0  0  0  0  0  0  0
   13.1310   35.9600   16.9900 O   0  0  0  0  0  0  0  0  0  0  0  0
   13.1090   37.2440   16.5730 C   0  0  0  0  0  0  0  0  0  0  0  0
   13.8910   37.6990   15.7370 O   0  0  0  0  0  0  0  0  0  0  0  0
   12.0850   37.9520   17.2160 N   0  0  0  0  0  0  0  0  0  0  0  0
   11.8050   37.7910   18.6470 C   0  0  0  0  0  0  0  0  0  0  0  0
   11.2170   38.8760   16.4750 C   0  0  0  0  0  0  0  0  0  0  0  0
   10.5960   38.2280   15.2600 C   0  0  0  0  0  0  0  0  0  0  0  0
   10.2930   38.7950   14.0340 C   0  0  0  0  0  0  0  0  0  0  0  0
   10.5200   40.1920   13.5470 C   0  0  0  0  0  0  0  0  0  0  0  0
    9.5710   41.0030   13.5870 O   0  0  0  0  0  0  0  0  0  0  0  0
   11.6330   40.5340   13.0920 O   0  0  0  0  0  1  0  0  0  0  0  0
    9.6650   37.8230   13.2270 N   0  0  0  0  0  0  0  0  0  0  0  0
    9.1770   37.9600   11.8510 C   0  0  0  0  0  0  0  0  0  0  0  0
    9.8970   39.0250   11.0140 C   0  0  0  0  0  0  0  0  0  0  0  0
    9.2300   40.2130   10.6210 C   0  0  0  0  0  0  0  0  0  0  0  0
    9.8860   41.1910    9.8550 C   0  0  0  0  0  0  0  0  0  0  0  0
   11.2210   41.0000    9.4640 C   0  0  0  0  0  0  0  0  0  0  0  0
   11.9040   39.8280    9.8400 C   0  0  0  0  0  0  0  0  0  0  0  0
   13.2450   39.6520    9.4390 C   0  0  0  0  0  0  0  0  0  0  0  0
   13.9470   38.4890    9.8030 C   0  0  0  0  0  0  0  0  0  0  0  0
   13.3090   37.4990   10.5700 C   0  0  0  0  0  0  0  0  0  0  0  0
   11.9710   37.6680   10.9740 C   0  0  0  0  0  0  0  0  0  0  0  0
   11.2480   38.8340   10.6160 C   0  0  0  0  0  0  0  0  0  0  0  0
    9.5660   36.6330   13.9360 C   0  0  0  0  0  0  0  0  0  0  0  0
    9.0170   35.3800   13.5960 C   0  0  0  0  0  0  0  0  0  0  0  0
    9.0600   34.3220   14.5200 C   0  0  0  0  0  0  0  0  0  0  0  0
    9.6510   34.5210   15.7790 C   0  0  0  0  0  0  0  0  0  0  0  0
    9.6990   33.5050   16.6730 F   0  0  0  0  0  0  0  0  0  0  0  0
   10.1940   35.7770   16.1130 C   0  0  0  0  0  0  0  0  0  0  0  0
   10.1600   36.8630   15.2050 C   0  0  0  0  0  0  0  0  0  0  0  0
   15.0528   35.9510   19.1277 H   0  0  0  0  0  0  0  0  0  0  0  0
   16.3251   35.9259   17.8598 H   0  0  0  0  0  0  0  0  0  0  0  0
   15.0825   37.2232   17.8598 H   0  0  0  0  0  0  0  0  0  0  0  0
   14.8569   35.1368   16.2097 H   0  0  0  0  0  0  0  0  0  0  0  0
   14.1969   34.3248   17.6676 H   0  0  0  0  0  0  0  0  0  0  0  0
   12.6120   38.2550   19.2330 H   0  0  0  0  0  0  0  0  0  0  0  0
   10.8488   38.2772   18.8905 H   0  0  0  0  0  0  0  0  0  0  0  0
   11.7442   36.7200   18.8905 H   0  0  0  0  0  0  0  0  0  0  0  0
   10.4131   39.2189   17.1430 H   0  0  0  0  0  0  0  0  0  0  0  0
   11.8369   39.7162   16.1289 H   0  0  0  0  0  0  0  0  0  0  0  0
    9.2982   36.9897   11.3471 H   0  0  0  0  0  0  0  0  0  0  0  0
    8.1283   38.2833   11.9261 H   0  0  0  0  0  0  0  0  0  0  0  0
    8.1834   40.3712   10.9204 H   0  0  0  0  0  0  0  0  0  0  0  0
    9.3532   42.1074    9.5612 H   0  0  0  0  0  0  0  0  0  0  0  0
   11.7332   41.7664    8.8637 H   0  0  0  0  0  0  0  0  0  0  0  0
   13.7436   40.4276    8.8391 H   0  0  0  0  0  0  0  0  0  0  0  0
   14.9924   38.3545    9.4883 H   0  0  0  0  0  0  0  0  0  0  0  0
   13.8570   36.5890   10.8556 H   0  0  0  0  0  0  0  0  0  0  0  0
   11.4811   36.8869   11.5740 H   0  0  0  0  0  0  0  0  0  0  0  0
    8.5555   35.2305   12.6087 H   0  0  0  0  0  0  0  0  0  0  0  0
    8.6329   33.3425   14.2587 H   0  0  0  0  0  0  0  0  0  0  0  0
   10.6550   35.9174   17.1018 H   0  0  0  0  0  0  0  0  0  0  0  0
  1  2  1  0
  2  3  1  0
  3  4  1  0
  4  5  2  0
  4  6  1  0
  6  7  1  0
  6  8  1  0
  8  9  1  0
  9 10  2  0
 10 11  1  0
 11 12  2  0
 11 13  1  0
 10 14  1  0
 14 15  1  0
 15 16  1  0
 16 17  2  0
 17 18  1  0
 18 19  2  0
 19 20  1  0
 20 21  2  0
 21 22  1  0
 22 23  2  0
 23 24  1  0
 24 25  2  0
 14 26  1  0
 26 27  2  0
 27 28  1  0
 28 29  2  0
 29 30  1  0
 29 31  1  0
 31 32  2  0
 32  9  1  0
 25 16  1  0
 32 26  1  0
 25 20  1  0
  1 33  1  0
  1 34  1  0
  1 35  1  0
  2 36  1  0
  2 37  1  0
  7 38  1  0
  7 39  1  0
  7 40  1  0
  8 41  1  0
  8 42  1  0
 15 43  1  0
 15 44  1  0
 17 45  1  0
 18 46  1  0
 19 47  1  0
 21 48  1  0
 22 49  1  0
 23 50  1  0
 24 51  1  0
 27 52  1  0
 28 53  1  0
 31 54  1  0
M  CHG  1  13  -1
M  END
>  <meeko>  (236) 
{"free_energy": -4.97, "intermolecular_energy": -7.36, "internal_energy": -1.91, "cluster_size": 66, "cluster_id": 61, "rank_in_cluster": 35}

$$$$

     RDKit          3D

 54 57  0  0  0  0  0  0  0  0999 V2000
   17.5440   42.0200   12.1260 C   0  0  0  0  0  0  0  0  0  0  0  0
   17.9830   40.8650   13.0300 C   0  0  0  0  0  0  0  0  0  0  0  0
   17.0950   40.7720   14.1330 O   0  0  0  0  0  0  0  0  0  0  0  0
   15.7660   40.9160   13.9460 C   0  0  0  0  0  0  0  0  0  0  0  0
   15.1240   41.8820   14.3610 O   0  0  0  0  0  0  0  0  0  0  0  0
   15.2510   39.8320   13.2220 N   0  0  0  0  0  0  0  0  0  0  0  0
   15.6420   38.4470   13.5080 C   0  0  0  0  0  0  0  0  0  0  0  0
   14.3090   40.0350   12.1140 C   0  0  0  0  0  0  0  0  0  0  0  0
   12.9470   39.4520   12.4070 C   0  0  0  0  0  0  0  0  0  0  0  0
   12.2060   38.5580   11.6530 C   0  0  0  0  0  0  0  0  0  0  0  0
   12.5480   37.8880   10.3600 C   0  0  0  0  0  0  0  0  0  0  0  0
   12.8560   38.5990    9.3780 O   0  0  0  0  0  0  0  0  0  0  0  0
   12.5090   36.6430   10.2580 O   0  0  0  0  0  1  0  0  0  0  0  0
   10.9650   38.3470   12.2900 N   0  0  0  0  0  0  0  0  0  0  0  0
    9.8620   37.4770   11.8690 C   0  0  0  0  0  0  0  0  0  0  0  0
    9.1340   37.9290   10.5960 C   0  0  0  0  0  0  0  0  0  0  0  0
    9.1210   39.2940   10.2130 C   0  0  0  0  0  0  0  0  0  0  0  0
    8.4560   39.7120    9.0470 C   0  0  0  0  0  0  0  0  0  0  0  0
    7.7890   38.7740    8.2440 C   0  0  0  0  0  0  0  0  0  0  0  0
    7.7860   37.4130    8.6050 C   0  0  0  0  0  0  0  0  0  0  0  0
    7.1100   36.4840    7.7860 C   0  0  0  0  0  0  0  0  0  0  0  0
    7.0930   35.1200    8.1270 C   0  0  0  0  0  0  0  0  0  0  0  0
    7.7540   34.6810    9.2880 C   0  0  0  0  0  0  0  0  0  0  0  0
    8.4300   35.6030   10.1100 C   0  0  0  0  0  0  0  0  0  0  0  0
    8.4570   36.9810    9.7810 C   0  0  0  0  0  0  0  0  0  0  0  0
   10.9110   39.1060   13.4510 C   0  0  0  0  0  0  0  0  0  0  0  0
    9.9030   39.2620   14.4260 C   0  0  0  0  0  0  0  0  0  0  0  0
   10.1200   40.1050   15.5290 C   0  0  0  0  0  0  0  0  0  0  0  0
   11.3430   40.7870   15.6550 C   0  0  0  0  0  0  0  0  0  0  0  0
   11.5600   41.5970   16.7180 F   0  0  0  0  0  0  0  0  0  0  0  0
   12.3430   40.6280   14.6760 C   0  0  0  0  0  0  0  0  0  0  0  0
   12.1510   39.7910   13.5500 C   0  0  0  0  0  0  0  0  0  0  0  0
   17.2213   42.8690   12.7465 H   0  0  0  0  0  0  0  0  0  0  0  0
   18.3872   42.3295   11.4910 H   0  0  0  0  0  0  0  0  0  0  0  0
   16.7081   41.6913   11.4910 H   0  0  0  0  0  0  0  0  0  0  0  0
   17.9624   39.9240   12.4607 H   0  0  0  0  0  0  0  0  0  0  0  0
   19.0052   41.0479   13.3930 H   0  0  0  0  0  0  0  0  0  0  0  0
   15.6848   38.2954   14.5967 H   0  0  0  0  0  0  0  0  0  0  0  0
   14.9028   37.7596   13.0709 H   0  0  0  0  0  0  0  0  0  0  0  0
   16.6315   38.2476   13.0709 H   0  0  0  0  0  0  0  0  0  0  0  0
   14.2007   41.1149   11.9349 H   0  0  0  0  0  0  0  0  0  0  0  0
   14.7128   39.5202   11.2297 H   0  0  0  0  0  0  0  0  0  0  0  0
   10.2690   36.4707   11.6911 H   0  0  0  0  0  0  0  0  0  0  0  0
    9.1176   37.5081   12.6783 H   0  0  0  0  0  0  0  0  0  0  0  0
    9.6389   40.0370   10.8374 H   0  0  0  0  0  0  0  0  0  0  0  0
    8.4585   40.7749    8.7639 H   0  0  0  0  0  0  0  0  0  0  0  0
    7.2684   39.1021    7.3323 H   0  0  0  0  0  0  0  0  0  0  0  0
    6.5943   36.8281    6.8773 H   0  0  0  0  0  0  0  0  0  0  0  0
    6.5640   34.3982    7.4873 H   0  0  0  0  0  0  0  0  0  0  0  0
    7.7429   33.6139    9.5549 H   0  0  0  0  0  0  0  0  0  0  0  0
    8.9425   35.2498   11.0170 H   0  0  0  0  0  0  0  0  0  0  0  0
    8.9488   38.7245   14.3228 H   0  0  0  0  0  0  0  0  0  0  0  0
    9.3364   40.2308   16.2906 H   0  0  0  0  0  0  0  0  0  0  0  0
   13.2955   41.1666   14.7887 H   0  0  0  0  0  0  0  0  0  0  0  0
  1  2  1  0
  2  3  1  0
  3  4  1  0
  4  5  2  0
  4  6  1  0
  6  7  1  0
  6  8  1  0
  8  9  1  0
  9 10  2  0
 10 11  1  0
 11 12  2  0
 11 13  1  0
 10 14  1  0
 14 15  1  0
 15 16  1  0
 16 17  2  0
 17 18  1  0
 18 19  2  0
 19 20  1  0
 20 21  2  0
 21 22  1  0
 22 23  2  0
 23 24  1  0
 24 25  2  0
 14 26  1  0
 26 27  2  0
 27 28  1  0
 28 29  2  0
 29 30  1  0
 29 31  1  0
 31 32  2  0
 32  9  1  0
 25 16  1  0
 32 26  1  0
 25 20  1  0
  1 33  1  0
  1 34  1  0
  1 35  1  0
  2 36  1  0
  2 37  1  0
  7 38  1  0
  7 39  1  0
  7 40  1  0
  8 41  1  0
  8 42  1  0
 15 43  1  0
 15 44  1  0
 17 45  1  0
 18 46  1  0
 19 47  1  0
 21 48  1  0
 22 49  1  0
 23 50  1  0
 24 51  1  0
 27 52  1  0
 28 53  1  0
 31 54  1  0
M  CHG  1  13  -1
M  END
>  <meeko>  (237) 
{"free_energy": -4.85, "intermolecular_energy": -7.24, "internal_energy": -1.85, "cluster_size": 20, "cluster_id": 87, "rank_in_cluster": 16}

$$$$

     RDKit          3D

 54 57  0  0  0  0  0  0  0  0999 V2000
   13.7960   35.2340   17.2540 C   0  0  0  0  0  0  0  0  0  0  0  0
   12.8360   36.4130   17.0680 C   0  0  0  0  0  0  0  0  0  0  0  0
   11.6580   36.1800   17.8220 O   0  0  0  0  0  0  0  0  0  0  0  0
   10.5030   35.8700   17.1950 C   0  0  0  0  0  0  0  0  0  0  0  0
    9.5430   35.3460   17.7620 O   0  0  0  0  0  0  0  0  0  0  0  0
   10.5650   36.2340   15.8440 N   0  0  0  0  0  0  0  0  0  0  0  0
   10.7040   35.2410   14.7730 C   0  0  0  0  0  0  0  0  0  0  0  0
   10.5230   37.6440   15.4320 C   0  0  0  0  0  0  0  0  0  0  0  0
   11.1720   37.8660   14.0860 C   0  0  0  0  0  0  0  0  0  0  0  0
   10.7020   37.5260   12.8300 C   0  0  0  0  0  0  0  0  0  0  0  0
    9.4120   36.8780   12.4370 C   0  0  0  0  0  0  0  0  0  0  0  0
    8.4940   37.5950   11.9830 O   0  0  0  0  0  0  0  0  0  0  0  0
    9.2490   35.6470   12.5800 O   0  0  0  0  0  1  0  0  0  0  0  0
   11.6780   37.8720   11.8700 N   0  0  0  0  0  0  0  0  0  0  0  0
   11.6210   37.7110   10.4150 C   0  0  0  0  0  0  0  0  0  0  0  0
   10.2880   38.1190    9.7720 C   0  0  0  0  0  0  0  0  0  0  0  0
    9.9530   39.4850    9.6020 C   0  0  0  0  0  0  0  0  0  0  0  0
    8.7340   39.8640    9.0140 C   0  0  0  0  0  0  0  0  0  0  0  0
    7.8250   38.8820    8.5870 C   0  0  0  0  0  0  0  0  0  0  0  0
    8.1350   37.5180    8.7470 C   0  0  0  0  0  0  0  0  0  0  0  0
    7.2100   36.5450    8.3120 C   0  0  0  0  0  0  0  0  0  0  0  0
    7.4980   35.1770    8.4620 C   0  0  0  0  0  0  0  0  0  0  0  0
    8.7130   34.7780    9.0470 C   0  0  0  0  0  0  0  0  0  0  0  0
    9.6400   35.7440    9.4830 C   0  0  0  0  0  0  0  0  0  0  0  0
    9.3660   37.1270    9.3400 C   0  0  0  0  0  0  0  0  0  0  0  0
   12.7740   38.4330   12.5140 C   0  0  0  0  0  0  0  0  0  0  0  0
   14.0010   38.9240   12.0230 C   0  0  0  0  0  0  0  0  0  0  0  0
   14.9480   39.4570   12.9130 C   0  0  0  0  0  0  0  0  0  0  0  0
   14.6650   39.4980   14.2900 C   0  0  0  0  0  0  0  0  0  0  0  0
   15.5730   40.0140   15.1520 F   0  0  0  0  0  0  0  0  0  0  0  0
   13.4380   39.0020   14.7720 C   0  0  0  0  0  0  0  0  0  0  0  0
   12.4670   38.4530   13.9010 C   0  0  0  0  0  0  0  0  0  0  0  0
   13.9463   35.0494   18.3279 H   0  0  0  0  0  0  0  0  0  0  0  0
   13.3691   34.3358   16.7838 H   0  0  0  0  0  0  0  0  0  0  0  0
   14.7620   35.4700   16.7838 H   0  0  0  0  0  0  0  0  0  0  0  0
   13.3183   37.3383   17.4160 H   0  0  0  0  0  0  0  0  0  0  0  0
   12.5786   36.5149   16.0034 H   0  0  0  0  0  0  0  0  0  0  0  0
   10.8437   34.2431   15.2141 H   0  0  0  0  0  0  0  0  0  0  0  0
    9.7968   35.2432   14.1509 H   0  0  0  0  0  0  0  0  0  0  0  0
   11.5757   35.4922   14.1509 H   0  0  0  0  0  0  0  0  0  0  0  0
    9.4725   37.9653   15.3758 H   0  0  0  0  0  0  0  0  0  0  0  0
   11.0821   38.2297   16.1766 H   0  0  0  0  0  0  0  0  0  0  0  0
   12.4172   38.3270    9.9715 H   0  0  0  0  0  0  0  0  0  0  0  0
   11.7424   36.6356   10.2183 H   0  0  0  0  0  0  0  0  0  0  0  0
   10.6578   40.2610    9.9353 H   0  0  0  0  0  0  0  0  0  0  0  0
    8.4918   40.9296    8.8882 H   0  0  0  0  0  0  0  0  0  0  0  0
    6.8707   39.1787    8.1275 H   0  0  0  0  0  0  0  0  0  0  0  0
    6.2602   36.8580    7.8539 H   0  0  0  0  0  0  0  0  0  0  0  0
    6.7748   34.4208    8.1226 H   0  0  0  0  0  0  0  0  0  0  0  0
    8.9399   33.7081    9.1643 H   0  0  0  0  0  0  0  0  0  0  0  0
   10.5874   35.4216    9.9397 H   0  0  0  0  0  0  0  0  0  0  0  0
   14.2163   38.8897   10.9448 H   0  0  0  0  0  0  0  0  0  0  0  0
   15.9069   39.8407   12.5346 H   0  0  0  0  0  0  0  0  0  0  0  0
   13.2295   39.0423   15.8513 H   0  0  0  0  0  0  0  0  0  0  0  0
  1  2  1  0
  2  3  1  0
  3  4  1  0
  4  5  2  0
  4  6  1  0
  6  7  1  0
  6  8  1  0
  8  9  1  0
  9 10  2  0
 10 11  1  0
 11 12  2  0
 11 13  1  0
 10 14  1  0
 14 15  1  0
 15 16  1  0
 16 17  2  0
 17 18  1  0
 18 19  2  0
 19 20  1  0
 20 21  2  0
 21 22  1  0
 22 23  2  0
 23 24  1  0
 24 25  2  0
 14 26  1  0
 26 27  2  0
 27 28  1  0
 28 29  2  0
 29 30  1  0
 29 31  1  0
 31 32  2  0
 32  9  1  0
 25 16  1  0
 32 26  1  0
 25 20  1  0
  1 33  1  0
  1 34  1  0
  1 35  1  0
  2 36  1  0
  2 37  1  0
  7 38  1  0
  7 39  1  0
  7 40  1  0
  8 41  1  0
  8 42  1  0
 15 43  1  0
 15 44  1  0
 17 45  1  0
 18 46  1  0
 19 47  1  0
 21 48  1  0
 22 49  1  0
 23 50  1  0
 24 51  1  0
 27 52  1  0
 28 53  1  0
 31 54  1  0
M  CHG  1  13  -1
M  END
>  <meeko>  (238) 
{"free_energy": -5.75, "intermolecular_energy": -8.14, "internal_energy": -1.41, "cluster_size": 263, "cluster_id": 1, "rank_in_cluster": 236}

$$$$

     RDKit          3D

 54 57  0  0  0  0  0  0  0  0999 V2000
    9.2260   41.0600   10.5760 C   0  0  0  0  0  0  0  0  0  0  0  0
   10.5390   41.4230    9.8780 C   0  0  0  0  0  0  0  0  0  0  0  0
   11.5770   41.4890   10.8420 O   0  0  0  0  0  0  0  0  0  0  0  0
   12.8690   41.4720   10.4480 C   0  0  0  0  0  0  0  0  0  0  0  0
   13.7000   42.3040   10.8150 O   0  0  0  0  0  0  0  0  0  0  0  0
   13.1060   40.3900    9.5900 N   0  0  0  0  0  0  0  0  0  0  0  0
   13.1490   40.5460    8.1320 C   0  0  0  0  0  0  0  0  0  0  0  0
   13.2970   39.0310   10.1120 C   0  0  0  0  0  0  0  0  0  0  0  0
   12.2130   38.6350   11.0870 C   0  0  0  0  0  0  0  0  0  0  0  0
   12.1970   38.7610   12.4650 C   0  0  0  0  0  0  0  0  0  0  0  0
   13.2230   39.3530   13.3800 C   0  0  0  0  0  0  0  0  0  0  0  0
   13.1540   40.5710   13.6520 O   0  0  0  0  0  0  0  0  0  0  0  0
   14.1420   38.6460   13.8480 O   0  0  0  0  0  1  0  0  0  0  0  0
   11.0020   38.1960   12.9590 N   0  0  0  0  0  0  0  0  0  0  0  0
   10.5440   38.1080   14.3480 C   0  0  0  0  0  0  0  0  0  0  0  0
   11.1420   36.9460   15.1530 C   0  0  0  0  0  0  0  0  0  0  0  0
   12.3840   37.0890   15.8210 C   0  0  0  0  0  0  0  0  0  0  0  0
   12.9350   36.0280   16.5590 C   0  0  0  0  0  0  0  0  0  0  0  0
   12.2560   34.8020   16.6400 C   0  0  0  0  0  0  0  0  0  0  0  0
   11.0220   34.6340   15.9840 C   0  0  0  0  0  0  0  0  0  0  0  0
   10.3540   33.3960   16.0760 C   0  0  0  0  0  0  0  0  0  0  0  0
    9.1200   33.2050   15.4290 C   0  0  0  0  0  0  0  0  0  0  0  0
    8.5510   34.2560   14.6860 C   0  0  0  0  0  0  0  0  0  0  0  0
    9.2140   35.4940   14.5900 C   0  0  0  0  0  0  0  0  0  0  0  0
   10.4570   35.7030   15.2360 C   0  0  0  0  0  0  0  0  0  0  0  0
   10.2530   37.7070   11.8970 C   0  0  0  0  0  0  0  0  0  0  0  0
    9.0080   37.0480   11.8500 C   0  0  0  0  0  0  0  0  0  0  0  0
    8.4650   36.6620   10.6130 C   0  0  0  0  0  0  0  0  0  0  0  0
    9.1680   36.9390    9.4280 C   0  0  0  0  0  0  0  0  0  0  0  0
    8.6480   36.5730    8.2320 F   0  0  0  0  0  0  0  0  0  0  0  0
   10.4130   37.5950    9.4820 C   0  0  0  0  0  0  0  0  0  0  0  0
   10.9880   37.9890   10.7140 C   0  0  0  0  0  0  0  0  0  0  0  0
    9.3673   41.0991   11.6662 H   0  0  0  0  0  0  0  0  0  0  0  0
    8.4442   41.7757   10.2817 H   0  0  0  0  0  0  0  0  0  0  0  0
    8.9229   40.0444   10.2817 H   0  0  0  0  0  0  0  0  0  0  0  0
   10.7815   40.6555    9.1283 H   0  0  0  0  0  0  0  0  0  0  0  0
   10.4352   42.3980    9.3795 H   0  0  0  0  0  0  0  0  0  0  0  0
   13.4337   41.5787    7.8820 H   0  0  0  0  0  0  0  0  0  0  0  0
   13.8887   39.8495    7.7104 H   0  0  0  0  0  0  0  0  0  0  0  0
   12.1569   40.3268    7.7104 H   0  0  0  0  0  0  0  0  0  0  0  0
   13.2907   38.3240    9.2693 H   0  0  0  0  0  0  0  0  0  0  0  0
   14.2573   39.0077   10.6479 H   0  0  0  0  0  0  0  0  0  0  0  0
   10.8090   39.0473   14.8554 H   0  0  0  0  0  0  0  0  0  0  0  0
    9.4598   37.9276   14.3046 H   0  0  0  0  0  0  0  0  0  0  0  0
   12.9246   38.0451   15.7607 H   0  0  0  0  0  0  0  0  0  0  0  0
   13.8986   36.1580   17.0734 H   0  0  0  0  0  0  0  0  0  0  0  0
   12.6889   33.9715   17.2169 H   0  0  0  0  0  0  0  0  0  0  0  0
   10.8002   32.5753   16.6568 H   0  0  0  0  0  0  0  0  0  0  0  0
    8.6015   32.2377   15.5034 H   0  0  0  0  0  0  0  0  0  0  0  0
    7.5858   34.1097   14.1790 H   0  0  0  0  0  0  0  0  0  0  0  0
    8.7613   36.3090   14.0062 H   0  0  0  0  0  0  0  0  0  0  0  0
    8.4619   36.8361   12.7810 H   0  0  0  0  0  0  0  0  0  0  0  0
    7.4946   36.1456   10.5722 H   0  0  0  0  0  0  0  0  0  0  0  0
   10.9507   37.8059    8.5458 H   0  0  0  0  0  0  0  0  0  0  0  0
  1  2  1  0
  2  3  1  0
  3  4  1  0
  4  5  2  0
  4  6  1  0
  6  7  1  0
  6  8  1  0
  8  9  1  0
  9 10  2  0
 10 11  1  0
 11 12  2  0
 11 13  1  0
 10 14  1  0
 14 15  1  0
 15 16  1  0
 16 17  2  0
 17 18  1  0
 18 19  2  0
 19 20  1  0
 20 21  2  0
 21 22  1  0
 22 23  2  0
 23 24  1  0
 24 25  2  0
 14 26  1  0
 26 27  2  0
 27 28  1  0
 28 29  2  0
 29 30  1  0
 29 31  1  0
 31 32  2  0
 32  9  1  0
 25 16  1  0
 32 26  1  0
 25 20  1  0
  1 33  1  0
  1 34  1  0
  1 35  1  0
  2 36  1  0
  2 37  1  0
  7 38  1  0
  7 39  1  0
  7 40  1  0
  8 41  1  0
  8 42  1  0
 15 43  1  0
 15 44  1  0
 17 45  1  0
 18 46  1  0
 19 47  1  0
 21 48  1  0
 22 49  1  0
 23 50  1  0
 24 51  1  0
 27 52  1  0
 28 53  1  0
 31 54  1  0
M  CHG  1  13  -1
M  END
>  <meeko>  (239) 
{"free_energy": -5.51, "intermolecular_energy": -7.9, "internal_energy": -2.24, "cluster_size": 130, "cluster_id": 32, "rank_in_cluster": 58}

$$$$

     RDKit          3D

 54 57  0  0  0  0  0  0  0  0999 V2000
   14.5420   36.8700    9.9770 C   0  0  0  0  0  0  0  0  0  0  0  0
   14.1660   38.1010   10.8050 C   0  0  0  0  0  0  0  0  0  0  0  0
   13.6650   39.1090    9.9420 O   0  0  0  0  0  0  0  0  0  0  0  0
   12.3330   39.2910    9.8160 C   0  0  0  0  0  0  0  0  0  0  0  0
   11.6290   38.6350    9.0470 O   0  0  0  0  0  0  0  0  0  0  0  0
   11.8920   40.3060   10.6760 N   0  0  0  0  0  0  0  0  0  0  0  0
   12.7820   41.3740   11.1430 C   0  0  0  0  0  0  0  0  0  0  0  0
   10.5120   40.3320   11.1790 C   0  0  0  0  0  0  0  0  0  0  0  0
   10.2170   39.1740   12.1030 C   0  0  0  0  0  0  0  0  0  0  0  0
    9.4990   38.0200   11.8440 C   0  0  0  0  0  0  0  0  0  0  0  0
    8.8410   37.5700   10.5780 C   0  0  0  0  0  0  0  0  0  0  0  0
    7.8910   38.2430   10.1230 O   0  0  0  0  0  0  0  0  0  0  0  0
    9.2210   36.5290    9.9980 O   0  0  0  0  0  1  0  0  0  0  0  0
    9.4310   37.2520   13.0270 N   0  0  0  0  0  0  0  0  0  0  0  0
    8.7850   35.9530   13.2330 C   0  0  0  0  0  0  0  0  0  0  0  0
    9.3090   35.1560   14.4350 C   0  0  0  0  0  0  0  0  0  0  0  0
   10.4510   34.3260   14.3130 C   0  0  0  0  0  0  0  0  0  0  0  0
   10.9350   33.5940   15.4110 C   0  0  0  0  0  0  0  0  0  0  0  0
   10.2830   33.6770   16.6520 C   0  0  0  0  0  0  0  0  0  0  0  0
    9.1450   34.4930   16.7980 C   0  0  0  0  0  0  0  0  0  0  0  0
    8.5030   34.5640   18.0520 C   0  0  0  0  0  0  0  0  0  0  0  0
    7.3650   35.3720   18.2210 C   0  0  0  0  0  0  0  0  0  0  0  0
    6.8670   36.1130   17.1340 C   0  0  0  0  0  0  0  0  0  0  0  0
    7.5030   36.0460   15.8800 C   0  0  0  0  0  0  0  0  0  0  0  0
    8.6500   35.2370   15.6920 C   0  0  0  0  0  0  0  0  0  0  0  0
   10.1060   37.9160   14.0430 C   0  0  0  0  0  0  0  0  0  0  0  0
   10.3190   37.5910   15.3980 C   0  0  0  0  0  0  0  0  0  0  0  0
   11.0620   38.4570   16.2180 C   0  0  0  0  0  0  0  0  0  0  0  0
   11.5900   39.6430   15.6800 C   0  0  0  0  0  0  0  0  0  0  0  0
   12.3110   40.4800   16.4640 F   0  0  0  0  0  0  0  0  0  0  0  0
   11.3710   39.9630   14.3260 C   0  0  0  0  0  0  0  0  0  0  0  0
   10.6200   39.1140   13.4770 C   0  0  0  0  0  0  0  0  0  0  0  0
   14.7960   36.0385   10.6508 H   0  0  0  0  0  0  0  0  0  0  0  0
   13.6912   36.5810    9.3425 H   0  0  0  0  0  0  0  0  0  0  0  0
   15.4091   37.1057    9.3425 H   0  0  0  0  0  0  0  0  0  0  0  0
   13.3938   37.8284   11.5394 H   0  0  0  0  0  0  0  0  0  0  0  0
   15.0547   38.4758   11.3339 H   0  0  0  0  0  0  0  0  0  0  0  0
   12.7931   41.3873   12.2429 H   0  0  0  0  0  0  0  0  0  0  0  0
   13.8002   41.1929   10.7682 H   0  0  0  0  0  0  0  0  0  0  0  0
   12.4202   42.3428   10.7682 H   0  0  0  0  0  0  0  0  0  0  0  0
   10.3532   41.2719   11.7279 H   0  0  0  0  0  0  0  0  0  0  0  0
    9.8369   40.2530   10.3141 H   0  0  0  0  0  0  0  0  0  0  0  0
    7.7087   36.1258   13.3802 H   0  0  0  0  0  0  0  0  0  0  0  0
    9.0104   35.3506   12.3406 H   0  0  0  0  0  0  0  0  0  0  0  0
   10.9667   34.2534   13.3441 H   0  0  0  0  0  0  0  0  0  0  0  0
   11.8242   32.9563   15.2982 H   0  0  0  0  0  0  0  0  0  0  0  0
   10.6618   33.1038   17.5110 H   0  0  0  0  0  0  0  0  0  0  0  0
    8.8944   33.9847   18.9012 H   0  0  0  0  0  0  0  0  0  0  0  0
    6.8658   35.4246   19.1998 H   0  0  0  0  0  0  0  0  0  0  0  0
    5.9776   36.7470   17.2643 H   0  0  0  0  0  0  0  0  0  0  0  0
    7.1045   36.6287   15.0364 H   0  0  0  0  0  0  0  0  0  0  0  0
    9.9041   36.6606   15.8129 H   0  0  0  0  0  0  0  0  0  0  0  0
   11.2296   38.2077   17.2762 H   0  0  0  0  0  0  0  0  0  0  0  0
   11.7929   40.8936   13.9187 H   0  0  0  0  0  0  0  0  0  0  0  0
  1  2  1  0
  2  3  1  0
  3  4  1  0
  4  5  2  0
  4  6  1  0
  6  7  1  0
  6  8  1  0
  8  9  1  0
  9 10  2  0
 10 11  1  0
 11 12  2  0
 11 13  1  0
 10 14  1  0
 14 15  1  0
 15 16  1  0
 16 17  2  0
 17 18  1  0
 18 19  2  0
 19 20  1  0
 20 21  2  0
 21 22  1  0
 22 23  2  0
 23 24  1  0
 24 25  2  0
 14 26  1  0
 26 27  2  0
 27 28  1  0
 28 29  2  0
 29 30  1  0
 29 31  1  0
 31 32  2  0
 32  9  1  0
 25 16  1  0
 32 26  1  0
 25 20  1  0
  1 33  1  0
  1 34  1  0
  1 35  1  0
  2 36  1  0
  2 37  1  0
  7 38  1  0
  7 39  1  0
  7 40  1  0
  8 41  1  0
  8 42  1  0
 15 43  1  0
 15 44  1  0
 17 45  1  0
 18 46  1  0
 19 47  1  0
 21 48  1  0
 22 49  1  0
 23 50  1  0
 24 51  1  0
 27 52  1  0
 28 53  1  0
 31 54  1  0
M  CHG  1  13  -1
M  END
>  <meeko>  (240) 
{"free_energy": -6.1, "intermolecular_energy": -8.49, "internal_energy": -1.55, "cluster_size": 73, "cluster_id": 49, "rank_in_cluster": 5}

$$$$

     RDKit          3D

 54 57  0  0  0  0  0  0  0  0999 V2000
    6.6560   38.0080    6.3620 C   0  0  0  0  0  0  0  0  0  0  0  0
    7.5210   38.3690    7.5720 C   0  0  0  0  0  0  0  0  0  0  0  0
    8.4910   37.3540    7.7720 O   0  0  0  0  0  0  0  0  0  0  0  0
    8.5620   36.7100    8.9560 C   0  0  0  0  0  0  0  0  0  0  0  0
    8.2410   35.5300    9.1070 O   0  0  0  0  0  0  0  0  0  0  0  0
    9.0500   37.5660    9.9530 N   0  0  0  0  0  0  0  0  0  0  0  0
   10.2410   38.3980    9.7520 C   0  0  0  0  0  0  0  0  0  0  0  0
    8.4020   37.6500   11.2680 C   0  0  0  0  0  0  0  0  0  0  0  0
    9.3640   37.3700   12.3990 C   0  0  0  0  0  0  0  0  0  0  0  0
    9.3910   36.2930   13.2680 C   0  0  0  0  0  0  0  0  0  0  0  0
    8.5060   35.0880   13.3200 C   0  0  0  0  0  0  0  0  0  0  0  0
    8.5940   34.3200   14.3030 O   0  0  0  0  0  0  0  0  0  0  0  0
    7.7080   34.8430   12.3890 O   0  0  0  0  0  1  0  0  0  0  0  0
   10.4300   36.4890   14.2020 N   0  0  0  0  0  0  0  0  0  0  0  0
   10.8430   35.6120   15.3020 C   0  0  0  0  0  0  0  0  0  0  0  0
   10.6260   36.1930   16.7060 C   0  0  0  0  0  0  0  0  0  0  0  0
   11.6870   36.8250   17.4010 C   0  0  0  0  0  0  0  0  0  0  0  0
   11.4930   37.3590   18.6870 C   0  0  0  0  0  0  0  0  0  0  0  0
   10.2350   37.2680   19.3030 C   0  0  0  0  0  0  0  0  0  0  0  0
    9.1660   36.6430   18.6330 C   0  0  0  0  0  0  0  0  0  0  0  0
    7.9080   36.5610   19.2670 C   0  0  0  0  0  0  0  0  0  0  0  0
    6.8260   35.9410   18.6170 C   0  0  0  0  0  0  0  0  0  0  0  0
    7.0000   35.4020   17.3300 C   0  0  0  0  0  0  0  0  0  0  0  0
    8.2520   35.4800   16.6920 C   0  0  0  0  0  0  0  0  0  0  0  0
    9.3530   36.1020   17.3320 C   0  0  0  0  0  0  0  0  0  0  0  0
   11.0690   37.6920   13.9310 C   0  0  0  0  0  0  0  0  0  0  0  0
   12.1430   38.3490   14.5650 C   0  0  0  0  0  0  0  0  0  0  0  0
   12.6050   39.5790   14.0660 C   0  0  0  0  0  0  0  0  0  0  0  0
   11.9920   40.1460   12.9360 C   0  0  0  0  0  0  0  0  0  0  0  0
   12.4350   41.3290   12.4480 F   0  0  0  0  0  0  0  0  0  0  0  0
   10.9170   39.4850   12.3100 C   0  0  0  0  0  0  0  0  0  0  0  0
   10.4260   38.2490   12.7930 C   0  0  0  0  0  0  0  0  0  0  0  0
    5.6922   37.6057    6.7072 H   0  0  0  0  0  0  0  0  0  0  0  0
    6.4812   38.9083    5.7546 H   0  0  0  0  0  0  0  0  0  0  0  0
    7.1730   37.2505    5.7546 H   0  0  0  0  0  0  0  0  0  0  0  0
    8.0257   39.3293    7.3900 H   0  0  0  0  0  0  0  0  0  0  0  0
    6.8869   38.4553    8.4667 H   0  0  0  0  0  0  0  0  0  0  0  0
   10.6553   38.6874   10.7291 H   0  0  0  0  0  0  0  0  0  0  0  0
   10.9948   37.8290    9.1881 H   0  0  0  0  0  0  0  0  0  0  0  0
    9.9661   39.3016    9.1881 H   0  0  0  0  0  0  0  0  0  0  0  0
    7.9904   38.6621   11.3958 H   0  0  0  0  0  0  0  0  0  0  0  0
    7.6099   36.8875   11.3027 H   0  0  0  0  0  0  0  0  0  0  0  0
   10.2699   34.6761   15.2268 H   0  0  0  0  0  0  0  0  0  0  0  0
   11.9278   35.4674   15.1915 H   0  0  0  0  0  0  0  0  0  0  0  0
   12.6770   36.8989   16.9273 H   0  0  0  0  0  0  0  0  0  0  0  0
   12.3274   37.8483   19.2107 H   0  0  0  0  0  0  0  0  0  0  0  0
   10.0843   37.6852   20.3096 H   0  0  0  0  0  0  0  0  0  0  0  0
    7.7732   36.9837   20.2736 H   0  0  0  0  0  0  0  0  0  0  0  0
    5.8466   35.8779   19.1138 H   0  0  0  0  0  0  0  0  0  0  0  0
    6.1543   34.9175   16.8199 H   0  0  0  0  0  0  0  0  0  0  0  0
    8.3774   35.0536   15.6858 H   0  0  0  0  0  0  0  0  0  0  0  0
   12.6189   37.8996   15.4491 H   0  0  0  0  0  0  0  0  0  0  0  0
   13.4426   40.0953   14.5578 H   0  0  0  0  0  0  0  0  0  0  0  0
   10.4484   39.9403   11.4251 H   0  0  0  0  0  0  0  0  0  0  0  0
  1  2  1  0
  2  3  1  0
  3  4  1  0
  4  5  2  0
  4  6  1  0
  6  7  1  0
  6  8  1  0
  8  9  1  0
  9 10  2  0
 10 11  1  0
 11 12  2  0
 11 13  1  0
 10 14  1  0
 14 15  1  0
 15 16  1  0
 16 17  2  0
 17 18  1  0
 18 19  2  0
 19 20  1  0
 20 21  2  0
 21 22  1  0
 22 23  2  0
 23 24  1  0
 24 25  2  0
 14 26  1  0
 26 27  2  0
 27 28  1  0
 28 29  2  0
 29 30  1  0
 29 31  1  0
 31 32  2  0
 32  9  1  0
 25 16  1  0
 32 26  1  0
 25 20  1  0
  1 33  1  0
  1 34  1  0
  1 35  1  0
  2 36  1  0
  2 37  1  0
  7 38  1  0
  7 39  1  0
  7 40  1  0
  8 41  1  0
  8 42  1  0
 15 43  1  0
 15 44  1  0
 17 45  1  0
 18 46  1  0
 19 47  1  0
 21 48  1  0
 22 49  1  0
 23 50  1  0
 24 51  1  0
 27 52  1  0
 28 53  1  0
 31 54  1  0
M  CHG  1  13  -1
M  END
>  <meeko>  (241) 
{"free_energy": -5.86, "intermolecular_energy": -8.25, "internal_energy": -1.21, "cluster_size": 109, "cluster_id": 6, "rank_in_cluster": 77}

$$$$

     RDKit          3D

 54 57  0  0  0  0  0  0  0  0999 V2000
    6.5810   35.8550   16.9790 C   0  0  0  0  0  0  0  0  0  0  0  0
    7.2060   34.7310   17.8100 C   0  0  0  0  0  0  0  0  0  0  0  0
    8.6190   34.8080   17.7120 O   0  0  0  0  0  0  0  0  0  0  0  0
    9.2990   33.8800   17.0060 C   0  0  0  0  0  0  0  0  0  0  0  0
    9.6500   32.7950   17.4730 O   0  0  0  0  0  0  0  0  0  0  0  0
    9.5290   34.3280   15.6990 N   0  0  0  0  0  0  0  0  0  0  0  0
    8.5150   34.2130   14.6450 C   0  0  0  0  0  0  0  0  0  0  0  0
   10.8190   34.9140   15.3100 C   0  0  0  0  0  0  0  0  0  0  0  0
   11.2860   35.9690   16.2850 C   0  0  0  0  0  0  0  0  0  0  0  0
   10.6460   37.1320   16.6750 C   0  0  0  0  0  0  0  0  0  0  0  0
    9.3050   37.6630   16.2760 C   0  0  0  0  0  0  0  0  0  0  0  0
    8.5600   38.1370   17.1600 O   0  0  0  0  0  0  0  0  0  0  0  0
    8.9310   37.6160   15.0840 O   0  0  0  0  0  1  0  0  0  0  0  0
   11.4900   37.8410   17.5570 N   0  0  0  0  0  0  0  0  0  0  0  0
   11.2350   39.1170   18.2320 C   0  0  0  0  0  0  0  0  0  0  0  0
   10.8060   40.2620   17.3050 C   0  0  0  0  0  0  0  0  0  0  0  0
    9.6850   41.0710   17.6210 C   0  0  0  0  0  0  0  0  0  0  0  0
    9.2880   42.1200   16.7750 C   0  0  0  0  0  0  0  0  0  0  0  0
   10.0040   42.3800   15.5950 C   0  0  0  0  0  0  0  0  0  0  0  0
   11.1190   41.5910   15.2580 C   0  0  0  0  0  0  0  0  0  0  0  0
   11.8260   41.8660   14.0690 C   0  0  0  0  0  0  0  0  0  0  0  0
   12.9430   41.0900   13.7120 C   0  0  0  0  0  0  0  0  0  0  0  0
   13.3560   40.0350   14.5460 C   0  0  0  0  0  0  0  0  0  0  0  0
   12.6550   39.7550   15.7340 C   0  0  0  0  0  0  0  0  0  0  0  0
   11.5280   40.5270   16.1090 C   0  0  0  0  0  0  0  0  0  0  0  0
   12.6700   37.1300   17.7320 C   0  0  0  0  0  0  0  0  0  0  0  0
   13.8280   37.4030   18.4890 C   0  0  0  0  0  0  0  0  0  0  0  0
   14.8940   36.4880   18.4930 C   0  0  0  0  0  0  0  0  0  0  0  0
   14.7980   35.3040   17.7420 C   0  0  0  0  0  0  0  0  0  0  0  0
   15.8210   34.4160   17.7450 F   0  0  0  0  0  0  0  0  0  0  0  0
   13.6400   35.0400   16.9860 C   0  0  0  0  0  0  0  0  0  0  0  0
   12.5520   35.9460   16.9560 C   0  0  0  0  0  0  0  0  0  0  0  0
    6.1578   36.6161   17.6511 H   0  0  0  0  0  0  0  0  0  0  0  0
    7.3531   36.3147   16.3445 H   0  0  0  0  0  0  0  0  0  0  0  0
    5.7831   35.4417   16.3445 H   0  0  0  0  0  0  0  0  0  0  0  0
    6.9038   34.8398   18.8621 H   0  0  0  0  0  0  0  0  0  0  0  0
    6.8621   33.7570   17.4317 H   0  0  0  0  0  0  0  0  0  0  0  0
    7.5212   34.1003   15.1030 H   0  0  0  0  0  0  0  0  0  0  0  0
    8.5305   35.1187   14.0209 H   0  0  0  0  0  0  0  0  0  0  0  0
    8.7329   33.3338   14.0209 H   0  0  0  0  0  0  0  0  0  0  0  0
   11.5725   34.1138   15.2667 H   0  0  0  0  0  0  0  0  0  0  0  0
   10.6882   35.3956   14.3297 H   0  0  0  0  0  0  0  0  0  0  0  0
   10.4368   38.9588   18.9722 H   0  0  0  0  0  0  0  0  0  0  0  0
   12.1902   39.4250   18.6822 H   0  0  0  0  0  0  0  0  0  0  0  0
    9.1176   40.8742   18.5426 H   0  0  0  0  0  0  0  0  0  0  0  0
    8.4163   42.7378   17.0368 H   0  0  0  0  0  0  0  0  0  0  0  0
    9.6925   43.2017   14.9334 H   0  0  0  0  0  0  0  0  0  0  0  0
   11.5021   42.6913   13.4179 H   0  0  0  0  0  0  0  0  0  0  0  0
   13.4920   41.3071   12.7838 H   0  0  0  0  0  0  0  0  0  0  0  0
   14.2297   39.4269   14.2687 H   0  0  0  0  0  0  0  0  0  0  0  0
   12.9860   38.9274   16.3785 H   0  0  0  0  0  0  0  0  0  0  0  0
   13.8965   38.3311   19.0755 H   0  0  0  0  0  0  0  0  0  0  0  0
   15.7996   36.6973   19.0812 H   0  0  0  0  0  0  0  0  0  0  0  0
   13.5789   34.1080   16.4049 H   0  0  0  0  0  0  0  0  0  0  0  0
  1  2  1  0
  2  3  1  0
  3  4  1  0
  4  5  2  0
  4  6  1  0
  6  7  1  0
  6  8  1  0
  8  9  1  0
  9 10  2  0
 10 11  1  0
 11 12  2  0
 11 13  1  0
 10 14  1  0
 14 15  1  0
 15 16  1  0
 16 17  2  0
 17 18  1  0
 18 19  2  0
 19 20  1  0
 20 21  2  0
 21 22  1  0
 22 23  2  0
 23 24  1  0
 24 25  2  0
 14 26  1  0
 26 27  2  0
 27 28  1  0
 28 29  2  0
 29 30  1  0
 29 31  1  0
 31 32  2  0
 32  9  1  0
 25 16  1  0
 32 26  1  0
 25 20  1  0
  1 33  1  0
  1 34  1  0
  1 35  1  0
  2 36  1  0
  2 37  1  0
  7 38  1  0
  7 39  1  0
  7 40  1  0
  8 41  1  0
  8 42  1  0
 15 43  1  0
 15 44  1  0
 17 45  1  0
 18 46  1  0
 19 47  1  0
 21 48  1  0
 22 49  1  0
 23 50  1  0
 24 51  1  0
 27 52  1  0
 28 53  1  0
 31 54  1  0
M  CHG  1  13  -1
M  END
>  <meeko>  (242) 
{"free_energy": -3.7, "intermolecular_energy": -6.08, "internal_energy": -2.33, "cluster_size": 9, "cluster_id": 189, "rank_in_cluster": 9}

$$$$

     RDKit          3D

 54 57  0  0  0  0  0  0  0  0999 V2000
    9.9860   41.6320   10.3890 C   0  0  0  0  0  0  0  0  0  0  0  0
   10.6730   40.5280    9.5820 C   0  0  0  0  0  0  0  0  0  0  0  0
    9.7260   39.5200    9.2670 O   0  0  0  0  0  0  0  0  0  0  0  0
    9.1350   38.8140   10.2550 C   0  0  0  0  0  0  0  0  0  0  0  0
    8.6760   39.3300   11.2750 O   0  0  0  0  0  0  0  0  0  0  0  0
    9.1230   37.4480    9.9430 N   0  0  0  0  0  0  0  0  0  0  0  0
    8.7130   36.9530    8.6250 C   0  0  0  0  0  0  0  0  0  0  0  0
    9.4960   36.4360   10.9400 C   0  0  0  0  0  0  0  0  0  0  0  0
   10.1310   37.0470   12.1670 C   0  0  0  0  0  0  0  0  0  0  0  0
    9.7020   36.9960   13.4820 C   0  0  0  0  0  0  0  0  0  0  0  0
    8.5170   36.2980   14.0720 C   0  0  0  0  0  0  0  0  0  0  0  0
    8.3110   35.1040   13.7670 O   0  0  0  0  0  0  0  0  0  0  0  0
    7.7380   36.9040   14.8390 O   0  0  0  0  0  1  0  0  0  0  0  0
   10.5770   37.7670   14.2760 N   0  0  0  0  0  0  0  0  0  0  0  0
   10.5300   37.9970   15.7220 C   0  0  0  0  0  0  0  0  0  0  0  0
    9.8380   36.8900   16.5290 C   0  0  0  0  0  0  0  0  0  0  0  0
    8.7920   37.1980   17.4350 C   0  0  0  0  0  0  0  0  0  0  0  0
    8.1560   36.1870   18.1760 C   0  0  0  0  0  0  0  0  0  0  0  0
    8.5560   34.8500   18.0270 C   0  0  0  0  0  0  0  0  0  0  0  0
    9.5940   34.5190   17.1360 C   0  0  0  0  0  0  0  0  0  0  0  0
    9.9830   33.1700   17.0000 C   0  0  0  0  0  0  0  0  0  0  0  0
   11.0180   32.8170   16.1160 C   0  0  0  0  0  0  0  0  0  0  0  0
   11.6660   33.8130   15.3640 C   0  0  0  0  0  0  0  0  0  0  0  0
   11.2830   35.1610   15.4960 C   0  0  0  0  0  0  0  0  0  0  0  0
   10.2420   35.5350   16.3820 C   0  0  0  0  0  0  0  0  0  0  0  0
   11.5670   38.3120   13.4680 C   0  0  0  0  0  0  0  0  0  0  0  0
   12.6580   39.1570   13.7600 C   0  0  0  0  0  0  0  0  0  0  0  0
   13.5270   39.5590   12.7320 C   0  0  0  0  0  0  0  0  0  0  0  0
   13.3030   39.1150   11.4170 C   0  0  0  0  0  0  0  0  0  0  0  0
   14.1400   39.4960   10.4220 F   0  0  0  0  0  0  0  0  0  0  0  0
   12.2100   38.2740   11.1330 C   0  0  0  0  0  0  0  0  0  0  0  0
   11.3130   37.8580   12.1470 C   0  0  0  0  0  0  0  0  0  0  0  0
   10.1103   41.4322   11.4635 H   0  0  0  0  0  0  0  0  0  0  0  0
   10.4395   42.6032   10.1418 H   0  0  0  0  0  0  0  0  0  0  0  0
    8.9144   41.6541   10.1418 H   0  0  0  0  0  0  0  0  0  0  0  0
   11.0815   40.9519    8.6528 H   0  0  0  0  0  0  0  0  0  0  0  0
   11.4914   40.0930   10.1745 H   0  0  0  0  0  0  0  0  0  0  0  0
    8.0159   36.1113    8.7500 H   0  0  0  0  0  0  0  0  0  0  0  0
    8.2161   37.7611    8.0681 H   0  0  0  0  0  0  0  0  0  0  0  0
    9.5995   36.6153    8.0681 H   0  0  0  0  0  0  0  0  0  0  0  0
    8.5914   35.8894   11.2448 H   0  0  0  0  0  0  0  0  0  0  0  0
   10.2345   35.7644   10.4779 H   0  0  0  0  0  0  0  0  0  0  0  0
   11.5634   38.0912   16.0870 H   0  0  0  0  0  0  0  0  0  0  0  0
    9.9316   38.9080   15.8708 H   0  0  0  0  0  0  0  0  0  0  0  0
    8.4735   38.2434   17.5599 H   0  0  0  0  0  0  0  0  0  0  0  0
    7.3446   36.4438   18.8729 H   0  0  0  0  0  0  0  0  0  0  0  0
    8.0575   34.0597   18.6074 H   0  0  0  0  0  0  0  0  0  0  0  0
    9.4748   32.3913   17.5876 H   0  0  0  0  0  0  0  0  0  0  0  0
   11.3200   31.7643   16.0130 H   0  0  0  0  0  0  0  0  0  0  0  0
   12.4745   33.5379   14.6707 H   0  0  0  0  0  0  0  0  0  0  0  0
   11.7975   35.9329   14.9048 H   0  0  0  0  0  0  0  0  0  0  0  0
   12.8281   39.5007   14.7910 H   0  0  0  0  0  0  0  0  0  0  0  0
   14.3789   40.2182   12.9550 H   0  0  0  0  0  0  0  0  0  0  0  0
   12.0491   37.9322   10.0999 H   0  0  0  0  0  0  0  0  0  0  0  0
  1  2  1  0
  2  3  1  0
  3  4  1  0
  4  5  2  0
  4  6  1  0
  6  7  1  0
  6  8  1  0
  8  9  1  0
  9 10  2  0
 10 11  1  0
 11 12  2  0
 11 13  1  0
 10 14  1  0
 14 15  1  0
 15 16  1  0
 16 17  2  0
 17 18  1  0
 18 19  2  0
 19 20  1  0
 20 21  2  0
 21 22  1  0
 22 23  2  0
 23 24  1  0
 24 25  2  0
 14 26  1  0
 26 27  2  0
 27 28  1  0
 28 29  2  0
 29 30  1  0
 29 31  1  0
 31 32  2  0
 32  9  1  0
 25 16  1  0
 32 26  1  0
 25 20  1  0
  1 33  1  0
  1 34  1  0
  1 35  1  0
  2 36  1  0
  2 37  1  0
  7 38  1  0
  7 39  1  0
  7 40  1  0
  8 41  1  0
  8 42  1  0
 15 43  1  0
 15 44  1  0
 17 45  1  0
 18 46  1  0
 19 47  1  0
 21 48  1  0
 22 49  1  0
 23 50  1  0
 24 51  1  0
 27 52  1  0
 28 53  1  0
 31 54  1  0
M  CHG  1  13  -1
M  END
>  <meeko>  (243) 
{"free_energy": -5.91, "intermolecular_energy": -8.29, "internal_energy": -1.55, "cluster_size": 109, "cluster_id": 6, "rank_in_cluster": 71}

$$$$

     RDKit          3D

 54 57  0  0  0  0  0  0  0  0999 V2000
   11.0230   38.4920   13.4580 C   0  0  0  0  0  0  0  0  0  0  0  0
   11.7530   39.5680   14.2660 C   0  0  0  0  0  0  0  0  0  0  0  0
   12.6600   40.2540   13.4190 O   0  0  0  0  0  0  0  0  0  0  0  0
   13.1060   41.4820   13.7570 C   0  0  0  0  0  0  0  0  0  0  0  0
   14.2910   41.7360   13.9800 O   0  0  0  0  0  0  0  0  0  0  0  0
   12.0440   42.3940   13.8070 N   0  0  0  0  0  0  0  0  0  0  0  0
   11.3800   42.7500   15.0660 C   0  0  0  0  0  0  0  0  0  0  0  0
   11.5200   43.0210   12.5870 C   0  0  0  0  0  0  0  0  0  0  0  0
   10.9150   42.0120   11.6390 C   0  0  0  0  0  0  0  0  0  0  0  0
    9.5840   41.6840   11.4570 C   0  0  0  0  0  0  0  0  0  0  0  0
    8.3630   42.2500   12.1120 C   0  0  0  0  0  0  0  0  0  0  0  0
    7.3440   42.4470   11.4150 O   0  0  0  0  0  0  0  0  0  0  0  0
    8.3690   42.5380   13.3280 O   0  0  0  0  0  1  0  0  0  0  0  0
    9.4980   40.6400   10.5100 N   0  0  0  0  0  0  0  0  0  0  0  0
    8.2990   39.9750    9.9940 C   0  0  0  0  0  0  0  0  0  0  0  0
    8.3760   38.4430    9.9590 C   0  0  0  0  0  0  0  0  0  0  0  0
    8.8790   37.7160   11.0670 C   0  0  0  0  0  0  0  0  0  0  0  0
    8.9510   36.3120   11.0400 C   0  0  0  0  0  0  0  0  0  0  0  0
    8.5230   35.6090    9.9020 C   0  0  0  0  0  0  0  0  0  0  0  0
    8.0210   36.3090    8.7880 C   0  0  0  0  0  0  0  0  0  0  0  0
    7.5970   35.5860    7.6540 C   0  0  0  0  0  0  0  0  0  0  0  0
    7.0920   36.2640    6.5300 C   0  0  0  0  0  0  0  0  0  0  0  0
    7.0110   37.6680    6.5380 C   0  0  0  0  0  0  0  0  0  0  0  0
    7.4340   38.3950    7.6670 C   0  0  0  0  0  0  0  0  0  0  0  0
    7.9440   37.7280    8.8080 C   0  0  0  0  0  0  0  0  0  0  0  0
   10.7770   40.3010   10.0870 C   0  0  0  0  0  0  0  0  0  0  0  0
   11.2380   39.3280    9.1770 C   0  0  0  0  0  0  0  0  0  0  0  0
   12.6140   39.2020    8.9230 C   0  0  0  0  0  0  0  0  0  0  0  0
   13.5230   40.0490    9.5780 C   0  0  0  0  0  0  0  0  0  0  0  0
   14.8510   39.9350    9.3350 F   0  0  0  0  0  0  0  0  0  0  0  0
   13.0560   41.0160   10.4890 C   0  0  0  0  0  0  0  0  0  0  0  0
   11.6760   41.1620   10.7710 C   0  0  0  0  0  0  0  0  0  0  0  0
   10.5408   37.7813   14.1453 H   0  0  0  0  0  0  0  0  0  0  0  0
   10.2586   38.9650   12.8240 H   0  0  0  0  0  0  0  0  0  0  0  0
   11.7450   37.9565   12.8240 H   0  0  0  0  0  0  0  0  0  0  0  0
   11.0213   40.2804   14.6749 H   0  0  0  0  0  0  0  0  0  0  0  0
   12.3046   39.0975   15.0932 H   0  0  0  0  0  0  0  0  0  0  0  0
   11.9984   42.4185   15.9132 H   0  0  0  0  0  0  0  0  0  0  0  0
   11.2463   43.8408   15.1144 H   0  0  0  0  0  0  0  0  0  0  0  0
   10.3975   42.2577   15.1144 H   0  0  0  0  0  0  0  0  0  0  0  0
   10.7463   43.7505   12.8683 H   0  0  0  0  0  0  0  0  0  0  0  0
   12.3608   43.5068   12.0702 H   0  0  0  0  0  0  0  0  0  0  0  0
    7.4489   40.2602   10.6311 H   0  0  0  0  0  0  0  0  0  0  0  0
    8.1889   40.3029    8.9498 H   0  0  0  0  0  0  0  0  0  0  0  0
    9.2182   38.2585   11.9617 H   0  0  0  0  0  0  0  0  0  0  0  0
    9.3425   35.7644   11.9100 H   0  0  0  0  0  0  0  0  0  0  0  0
    8.5800   34.5107    9.8809 H   0  0  0  0  0  0  0  0  0  0  0  0
    7.6614   34.4879    7.6485 H   0  0  0  0  0  0  0  0  0  0  0  0
    6.7612   35.6976    5.6469 H   0  0  0  0  0  0  0  0  0  0  0  0
    6.6160   38.1996    5.6597 H   0  0  0  0  0  0  0  0  0  0  0  0
    7.3678   39.4930    7.6631 H   0  0  0  0  0  0  0  0  0  0  0  0
   10.5211   38.6682    8.6664 H   0  0  0  0  0  0  0  0  0  0  0  0
   12.9778   38.4434    8.2143 H   0  0  0  0  0  0  0  0  0  0  0  0
   13.7799   41.6731   10.9932 H   0  0  0  0  0  0  0  0  0  0  0  0
  1  2  1  0
  2  3  1  0
  3  4  1  0
  4  5  2  0
  4  6  1  0
  6  7  1  0
  6  8  1  0
  8  9  1  0
  9 10  2  0
 10 11  1  0
 11 12  2  0
 11 13  1  0
 10 14  1  0
 14 15  1  0
 15 16  1  0
 16 17  2  0
 17 18  1  0
 18 19  2  0
 19 20  1  0
 20 21  2  0
 21 22  1  0
 22 23  2  0
 23 24  1  0
 24 25  2  0
 14 26  1  0
 26 27  2  0
 27 28  1  0
 28 29  2  0
 29 30  1  0
 29 31  1  0
 31 32  2  0
 32  9  1  0
 25 16  1  0
 32 26  1  0
 25 20  1  0
  1 33  1  0
  1 34  1  0
  1 35  1  0
  2 36  1  0
  2 37  1  0
  7 38  1  0
  7 39  1  0
  7 40  1  0
  8 41  1  0
  8 42  1  0
 15 43  1  0
 15 44  1  0
 17 45  1  0
 18 46  1  0
 19 47  1  0
 21 48  1  0
 22 49  1  0
 23 50  1  0
 24 51  1  0
 27 52  1  0
 28 53  1  0
 31 54  1  0
M  CHG  1  13  -1
M  END
>  <meeko>  (244) 
{"free_energy": -6.84, "intermolecular_energy": -9.23, "internal_energy": -2.37, "cluster_size": 210, "cluster_id": 15, "rank_in_cluster": 13}

$$$$

     RDKit          3D

 54 57  0  0  0  0  0  0  0  0999 V2000
    7.0190   35.1050   16.9990 C   0  0  0  0  0  0  0  0  0  0  0  0
    8.0620   34.3370   16.1830 C   0  0  0  0  0  0  0  0  0  0  0  0
    8.4120   35.0990   15.0380 O   0  0  0  0  0  0  0  0  0  0  0  0
    9.6950   35.1420   14.6210 C   0  0  0  0  0  0  0  0  0  0  0  0
   10.2640   34.1950   14.0760 O   0  0  0  0  0  0  0  0  0  0  0  0
   10.2570   36.3970   14.8920 N   0  0  0  0  0  0  0  0  0  0  0  0
   11.6750   36.5600   15.2340 C   0  0  0  0  0  0  0  0  0  0  0  0
    9.4400   37.6170   14.8740 C   0  0  0  0  0  0  0  0  0  0  0  0
    9.5010   38.3270   13.5420 C   0  0  0  0  0  0  0  0  0  0  0  0
    9.7890   39.6550   13.2790 C   0  0  0  0  0  0  0  0  0  0  0  0
   10.1550   40.7560   14.2240 C   0  0  0  0  0  0  0  0  0  0  0  0
    9.2390   41.3760   14.8070 O   0  0  0  0  0  0  0  0  0  0  0  0
   11.3520   41.0630   14.4100 O   0  0  0  0  0  1  0  0  0  0  0  0
    9.6650   39.8810   11.8920 N   0  0  0  0  0  0  0  0  0  0  0  0
    9.8810   41.1260   11.1490 C   0  0  0  0  0  0  0  0  0  0  0  0
   11.2910   41.2920   10.5650 C   0  0  0  0  0  0  0  0  0  0  0  0
   11.7490   40.4450    9.5240 C   0  0  0  0  0  0  0  0  0  0  0  0
   13.0390   40.5930    8.9860 C   0  0  0  0  0  0  0  0  0  0  0  0
   13.8960   41.5900    9.4800 C   0  0  0  0  0  0  0  0  0  0  0  0
   13.4640   42.4420   10.5150 C   0  0  0  0  0  0  0  0  0  0  0  0
   14.3390   43.4370   10.9990 C   0  0  0  0  0  0  0  0  0  0  0  0
   13.9290   44.2990   12.0320 C   0  0  0  0  0  0  0  0  0  0  0  0
   12.6420   44.1670   12.5830 C   0  0  0  0  0  0  0  0  0  0  0  0
   11.7640   43.1760   12.1040 C   0  0  0  0  0  0  0  0  0  0  0  0
   12.1610   42.2990   11.0640 C   0  0  0  0  0  0  0  0  0  0  0  0
    9.2970   38.6970   11.2660 C   0  0  0  0  0  0  0  0  0  0  0  0
    9.0340   38.3900    9.9150 C   0  0  0  0  0  0  0  0  0  0  0  0
    8.6820   37.0800    9.5490 C   0  0  0  0  0  0  0  0  0  0  0  0
    8.5960   36.0810   10.5350 C   0  0  0  0  0  0  0  0  0  0  0  0
    8.2620   34.8160   10.1880 F   0  0  0  0  0  0  0  0  0  0  0  0
    8.8570   36.3960   11.8820 C   0  0  0  0  0  0  0  0  0  0  0  0
    9.2070   37.7090   12.2820 C   0  0  0  0  0  0  0  0  0  0  0  0
    7.2143   34.9612   18.0719 H   0  0  0  0  0  0  0  0  0  0  0  0
    7.0791   36.1761   16.7557 H   0  0  0  0  0  0  0  0  0  0  0  0
    6.0141   34.7296   16.7557 H   0  0  0  0  0  0  0  0  0  0  0  0
    8.9573   34.1655   16.7986 H   0  0  0  0  0  0  0  0  0  0  0  0
    7.6458   33.3683   15.8693 H   0  0  0  0  0  0  0  0  0  0  0  0
   11.7892   36.5731   16.3280 H   0  0  0  0  0  0  0  0  0  0  0  0
   12.2518   35.7223   14.8152 H   0  0  0  0  0  0  0  0  0  0  0  0
   12.0467   37.5068   14.8152 H   0  0  0  0  0  0  0  0  0  0  0  0
    8.3946   37.3460   15.0831 H   0  0  0  0  0  0  0  0  0  0  0  0
    9.8379   38.3004   15.6386 H   0  0  0  0  0  0  0  0  0  0  0  0
    9.1608   41.1578   10.3182 H   0  0  0  0  0  0  0  0  0  0  0  0
    9.7473   41.9445   11.8716 H   0  0  0  0  0  0  0  0  0  0  0  0
   11.0849   39.6606    9.1318 H   0  0  0  0  0  0  0  0  0  0  0  0
   13.3774   39.9278    8.1779 H   0  0  0  0  0  0  0  0  0  0  0  0
   14.9054   41.7055    9.0583 H   0  0  0  0  0  0  0  0  0  0  0  0
   15.3455   43.5391   10.5670 H   0  0  0  0  0  0  0  0  0  0  0  0
   14.6131   45.0741   12.4078 H   0  0  0  0  0  0  0  0  0  0  0  0
   12.3201   44.8403   13.3911 H   0  0  0  0  0  0  0  0  0  0  0  0
   10.7593   43.0815   12.5417 H   0  0  0  0  0  0  0  0  0  0  0  0
    9.1044   39.1756    9.1483 H   0  0  0  0  0  0  0  0  0  0  0  0
    8.4747   36.8370    8.4964 H   0  0  0  0  0  0  0  0  0  0  0  0
    8.7875   35.6037   12.6419 H   0  0  0  0  0  0  0  0  0  0  0  0
  1  2  1  0
  2  3  1  0
  3  4  1  0
  4  5  2  0
  4  6  1  0
  6  7  1  0
  6  8  1  0
  8  9  1  0
  9 10  2  0
 10 11  1  0
 11 12  2  0
 11 13  1  0
 10 14  1  0
 14 15  1  0
 15 16  1  0
 16 17  2  0
 17 18  1  0
 18 19  2  0
 19 20  1  0
 20 21  2  0
 21 22  1  0
 22 23  2  0
 23 24  1  0
 24 25  2  0
 14 26  1  0
 26 27  2  0
 27 28  1  0
 28 29  2  0
 29 30  1  0
 29 31  1  0
 31 32  2  0
 32  9  1  0
 25 16  1  0
 32 26  1  0
 25 20  1  0
  1 33  1  0
  1 34  1  0
  1 35  1  0
  2 36  1  0
  2 37  1  0
  7 38  1  0
  7 39  1  0
  7 40  1  0
  8 41  1  0
  8 42  1  0
 15 43  1  0
 15 44  1  0
 17 45  1  0
 18 46  1  0
 19 47  1  0
 21 48  1  0
 22 49  1  0
 23 50  1  0
 24 51  1  0
 27 52  1  0
 28 53  1  0
 31 54  1  0
M  CHG  1  13  -1
M  END
>  <meeko>  (245) 
{"free_energy": -5.01, "intermolecular_energy": -7.4, "internal_energy": -1.94, "cluster_size": 318, "cluster_id": 5, "rank_in_cluster": 296}

$$$$

     RDKit          3D

 54 57  0  0  0  0  0  0  0  0999 V2000
   15.5270   34.9040    9.7730 C   0  0  0  0  0  0  0  0  0  0  0  0
   14.4010   35.9220    9.9730 C   0  0  0  0  0  0  0  0  0  0  0  0
   14.9570   37.2250   10.0420 O   0  0  0  0  0  0  0  0  0  0  0  0
   15.5880   37.6330   11.1640 C   0  0  0  0  0  0  0  0  0  0  0  0
   16.6010   37.0890   11.6080 O   0  0  0  0  0  0  0  0  0  0  0  0
   14.9340   38.7390   11.7210 N   0  0  0  0  0  0  0  0  0  0  0  0
   14.5560   38.7900   13.1380 C   0  0  0  0  0  0  0  0  0  0  0  0
   14.5660   39.9000   10.9000 C   0  0  0  0  0  0  0  0  0  0  0  0
   13.1270   40.3120   11.1040 C   0  0  0  0  0  0  0  0  0  0  0  0
   11.9750   39.6810   10.6710 C   0  0  0  0  0  0  0  0  0  0  0  0
   11.8160   38.4000    9.9130 C   0  0  0  0  0  0  0  0  0  0  0  0
   11.4560   38.4510    8.7180 O   0  0  0  0  0  0  0  0  0  0  0  0
   12.0200   37.3000   10.4720 O   0  0  0  0  0  1  0  0  0  0  0  0
   10.8610   40.4650   11.0400 N   0  0  0  0  0  0  0  0  0  0  0  0
    9.4390   40.1950   10.8060 C   0  0  0  0  0  0  0  0  0  0  0  0
    9.0590   38.7080   10.7920 C   0  0  0  0  0  0  0  0  0  0  0  0
    9.3560   37.8730   11.8980 C   0  0  0  0  0  0  0  0  0  0  0  0
    9.0090   36.5110   11.8900 C   0  0  0  0  0  0  0  0  0  0  0  0
    8.3600   35.9580   10.7740 C   0  0  0  0  0  0  0  0  0  0  0  0
    8.0560   36.7670    9.6630 C   0  0  0  0  0  0  0  0  0  0  0  0
    7.4050   36.1940    8.5510 C   0  0  0  0  0  0  0  0  0  0  0  0
    7.0920   36.9830    7.4290 C   0  0  0  0  0  0  0  0  0  0  0  0
    7.4290   38.3480    7.4190 C   0  0  0  0  0  0  0  0  0  0  0  0
    8.0800   38.9250    8.5250 C   0  0  0  0  0  0  0  0  0  0  0  0
    8.4030   38.1450    9.6640 C   0  0  0  0  0  0  0  0  0  0  0  0
   11.3010   41.5990   11.7090 C   0  0  0  0  0  0  0  0  0  0  0  0
   10.6050   42.6930   12.2640 C   0  0  0  0  0  0  0  0  0  0  0  0
   11.3130   43.7220   12.9060 C   0  0  0  0  0  0  0  0  0  0  0  0
   12.7150   43.6540   12.9920 C   0  0  0  0  0  0  0  0  0  0  0  0
   13.4030   44.6410   13.6130 F   0  0  0  0  0  0  0  0  0  0  0  0
   13.4040   42.5610   12.4330 C   0  0  0  0  0  0  0  0  0  0  0  0
   12.7180   41.5120   11.7740 C   0  0  0  0  0  0  0  0  0  0  0  0
   15.8971   34.5694   10.7533 H   0  0  0  0  0  0  0  0  0  0  0  0
   15.1441   34.0394    9.2110 H   0  0  0  0  0  0  0  0  0  0  0  0
   16.3487   35.3719    9.2110 H   0  0  0  0  0  0  0  0  0  0  0  0
   13.6996   35.8656    9.1275 H   0  0  0  0  0  0  0  0  0  0  0  0
   13.8634   35.6997   10.9066 H   0  0  0  0  0  0  0  0  0  0  0  0
   15.4540   38.6688   13.7616 H   0  0  0  0  0  0  0  0  0  0  0  0
   14.0854   39.7598   13.3573 H   0  0  0  0  0  0  0  0  0  0  0  0
   13.8452   37.9796   13.3573 H   0  0  0  0  0  0  0  0  0  0  0  0
   15.2175   40.7445   11.1690 H   0  0  0  0  0  0  0  0  0  0  0  0
   14.6895   39.6186    9.8438 H   0  0  0  0  0  0  0  0  0  0  0  0
    8.8617   40.6880   11.6021 H   0  0  0  0  0  0  0  0  0  0  0  0
    9.2121   40.5816    9.8015 H   0  0  0  0  0  0  0  0  0  0  0  0
    9.8656   38.2972   12.7757 H   0  0  0  0  0  0  0  0  0  0  0  0
    9.2458   35.8781   12.7580 H   0  0  0  0  0  0  0  0  0  0  0  0
    8.0891   34.8919   10.7682 H   0  0  0  0  0  0  0  0  0  0  0  0
    7.1409   35.1262    8.5609 H   0  0  0  0  0  0  0  0  0  0  0  0
    6.5852   36.5334    6.5624 H   0  0  0  0  0  0  0  0  0  0  0  0
    7.1829   38.9669    6.5436 H   0  0  0  0  0  0  0  0  0  0  0  0
    8.3413   39.9933    8.5057 H   0  0  0  0  0  0  0  0  0  0  0  0
    9.5082   42.7402   12.1940 H   0  0  0  0  0  0  0  0  0  0  0  0
   10.7735   44.5770   13.3395 H   0  0  0  0  0  0  0  0  0  0  0  0
   14.5006   42.5209   12.5099 H   0  0  0  0  0  0  0  0  0  0  0  0
  1  2  1  0
  2  3  1  0
  3  4  1  0
  4  5  2  0
  4  6  1  0
  6  7  1  0
  6  8  1  0
  8  9  1  0
  9 10  2  0
 10 11  1  0
 11 12  2  0
 11 13  1  0
 10 14  1  0
 14 15  1  0
 15 16  1  0
 16 17  2  0
 17 18  1  0
 18 19  2  0
 19 20  1  0
 20 21  2  0
 21 22  1  0
 22 23  2  0
 23 24  1  0
 24 25  2  0
 14 26  1  0
 26 27  2  0
 27 28  1  0
 28 29  2  0
 29 30  1  0
 29 31  1  0
 31 32  2  0
 32  9  1  0
 25 16  1  0
 32 26  1  0
 25 20  1  0
  1 33  1  0
  1 34  1  0
  1 35  1  0
  2 36  1  0
  2 37  1  0
  7 38  1  0
  7 39  1  0
  7 40  1  0
  8 41  1  0
  8 42  1  0
 15 43  1  0
 15 44  1  0
 17 45  1  0
 18 46  1  0
 19 47  1  0
 21 48  1  0
 22 49  1  0
 23 50  1  0
 24 51  1  0
 27 52  1  0
 28 53  1  0
 31 54  1  0
M  CHG  1  13  -1
M  END
>  <meeko>  (246) 
{"free_energy": -6.65, "intermolecular_energy": -9.04, "internal_energy": -1.74, "cluster_size": 417, "cluster_id": 2, "rank_in_cluster": 197}

$$$$

     RDKit          3D

 54 57  0  0  0  0  0  0  0  0999 V2000
   18.0400   38.8420   11.2490 C   0  0  0  0  0  0  0  0  0  0  0  0
   17.6320   39.6250   12.4990 C   0  0  0  0  0  0  0  0  0  0  0  0
   16.5160   38.9920   13.1040 O   0  0  0  0  0  0  0  0  0  0  0  0
   15.3230   39.6240   13.1500 C   0  0  0  0  0  0  0  0  0  0  0  0
   15.1810   40.7730   13.5710 O   0  0  0  0  0  0  0  0  0  0  0  0
   14.3090   38.7960   12.6520 N   0  0  0  0  0  0  0  0  0  0  0  0
   14.4700   38.0190   11.4180 C   0  0  0  0  0  0  0  0  0  0  0  0
   13.0120   38.6860   13.3340 C   0  0  0  0  0  0  0  0  0  0  0  0
   11.8550   39.0020   12.4150 C   0  0  0  0  0  0  0  0  0  0  0  0
   10.6020   38.4160   12.3660 C   0  0  0  0  0  0  0  0  0  0  0  0
   10.0210   37.3340   13.2210 C   0  0  0  0  0  0  0  0  0  0  0  0
   10.7980   36.5950   13.8640 O   0  0  0  0  0  0  0  0  0  0  0  0
    8.7840   37.1610   13.2750 O   0  0  0  0  0  1  0  0  0  0  0  0
    9.8730   38.9920   11.3040 N   0  0  0  0  0  0  0  0  0  0  0  0
    8.5020   38.6970   10.8760 C   0  0  0  0  0  0  0  0  0  0  0  0
    8.3660   37.4950    9.9320 C   0  0  0  0  0  0  0  0  0  0  0  0
    8.7790   36.2020   10.3400 C   0  0  0  0  0  0  0  0  0  0  0  0
    8.6550   35.0980    9.4790 C   0  0  0  0  0  0  0  0  0  0  0  0
    8.1180   35.2670    8.1930 C   0  0  0  0  0  0  0  0  0  0  0  0
    7.7020   36.5410    7.7640 C   0  0  0  0  0  0  0  0  0  0  0  0
    7.1660   36.6930    6.4690 C   0  0  0  0  0  0  0  0  0  0  0  0
    6.7440   37.9570    6.0190 C   0  0  0  0  0  0  0  0  0  0  0  0
    6.8580   39.0740    6.8660 C   0  0  0  0  0  0  0  0  0  0  0  0
    7.3940   38.9290    8.1600 C   0  0  0  0  0  0  0  0  0  0  0  0
    7.8230   37.6630    8.6290 C   0  0  0  0  0  0  0  0  0  0  0  0
   10.6590   39.9470   10.6730 C   0  0  0  0  0  0  0  0  0  0  0  0
   10.4130   40.7850    9.5660 C   0  0  0  0  0  0  0  0  0  0  0  0
   11.4020   41.6840    9.1340 C   0  0  0  0  0  0  0  0  0  0  0  0
   12.6330   41.7430    9.8100 C   0  0  0  0  0  0  0  0  0  0  0  0
   13.5890   42.6100    9.4010 F   0  0  0  0  0  0  0  0  0  0  0  0
   12.8730   40.9000   10.9130 C   0  0  0  0  0  0  0  0  0  0  0  0
   11.8980   39.9790   11.3670 C   0  0  0  0  0  0  0  0  0  0  0  0
   18.5292   37.9032   11.5478 H   0  0  0  0  0  0  0  0  0  0  0  0
   17.1455   38.6150   10.6503 H   0  0  0  0  0  0  0  0  0  0  0  0
   18.7385   39.4450   10.6503 H   0  0  0  0  0  0  0  0  0  0  0  0
   18.4717   39.6473   13.2092 H   0  0  0  0  0  0  0  0  0  0  0  0
   17.3649   40.6546   12.2186 H   0  0  0  0  0  0  0  0  0  0  0  0
   14.6872   36.9706   11.6705 H   0  0  0  0  0  0  0  0  0  0  0  0
   13.5423   38.0697   10.8291 H   0  0  0  0  0  0  0  0  0  0  0  0
   15.3012   38.4341   10.8291 H   0  0  0  0  0  0  0  0  0  0  0  0
   12.8955   37.6588   13.7099 H   0  0  0  0  0  0  0  0  0  0  0  0
   12.9997   39.4170   14.1559 H   0  0  0  0  0  0  0  0  0  0  0  0
    7.8991   38.4966   11.7739 H   0  0  0  0  0  0  0  0  0  0  0  0
    8.1592   39.5754   10.3095 H   0  0  0  0  0  0  0  0  0  0  0  0
    9.2028   36.0605   11.3452 H   0  0  0  0  0  0  0  0  0  0  0  0
    8.9788   34.1012    9.8130 H   0  0  0  0  0  0  0  0  0  0  0  0
    8.0223   34.4024    7.5198 H   0  0  0  0  0  0  0  0  0  0  0  0
    7.0774   35.8188    5.8073 H   0  0  0  0  0  0  0  0  0  0  0  0
    6.3262   38.0716    5.0079 H   0  0  0  0  0  0  0  0  0  0  0  0
    6.5276   40.0634    6.5167 H   0  0  0  0  0  0  0  0  0  0  0  0
    7.4806   39.8090    8.8143 H   0  0  0  0  0  0  0  0  0  0  0  0
    9.4475   40.7348    9.0412 H   0  0  0  0  0  0  0  0  0  0  0  0
   11.2140   42.3390    8.2705 H   0  0  0  0  0  0  0  0  0  0  0  0
   13.8402   40.9586   11.4336 H   0  0  0  0  0  0  0  0  0  0  0  0
  1  2  1  0
  2  3  1  0
  3  4  1  0
  4  5  2  0
  4  6  1  0
  6  7  1  0
  6  8  1  0
  8  9  1  0
  9 10  2  0
 10 11  1  0
 11 12  2  0
 11 13  1  0
 10 14  1  0
 14 15  1  0
 15 16  1  0
 16 17  2  0
 17 18  1  0
 18 19  2  0
 19 20  1  0
 20 21  2  0
 21 22  1  0
 22 23  2  0
 23 24  1  0
 24 25  2  0
 14 26  1  0
 26 27  2  0
 27 28  1  0
 28 29  2  0
 29 30  1  0
 29 31  1  0
 31 32  2  0
 32  9  1  0
 25 16  1  0
 32 26  1  0
 25 20  1  0
  1 33  1  0
  1 34  1  0
  1 35  1  0
  2 36  1  0
  2 37  1  0
  7 38  1  0
  7 39  1  0
  7 40  1  0
  8 41  1  0
  8 42  1  0
 15 43  1  0
 15 44  1  0
 17 45  1  0
 18 46  1  0
 19 47  1  0
 21 48  1  0
 22 49  1  0
 23 50  1  0
 24 51  1  0
 27 52  1  0
 28 53  1  0
 31 54  1  0
M  CHG  1  13  -1
M  END
>  <meeko>  (247) 
{"free_energy": -6.63, "intermolecular_energy": -9.01, "internal_energy": -1.75, "cluster_size": 81, "cluster_id": 9, "rank_in_cluster": 15}

$$$$

     RDKit          3D

 54 57  0  0  0  0  0  0  0  0999 V2000
   15.6830   41.1520   11.5650 C   0  0  0  0  0  0  0  0  0  0  0  0
   15.6660   42.1470   10.4020 C   0  0  0  0  0  0  0  0  0  0  0  0
   14.3410   42.2710    9.9130 O   0  0  0  0  0  0  0  0  0  0  0  0
   13.3950   41.3840   10.2890 C   0  0  0  0  0  0  0  0  0  0  0  0
   12.5940   41.5930   11.2020 O   0  0  0  0  0  0  0  0  0  0  0  0
   13.4620   40.2300    9.4980 N   0  0  0  0  0  0  0  0  0  0  0  0
   13.4100   40.2840    8.0320 C   0  0  0  0  0  0  0  0  0  0  0  0
   13.5580   38.8950   10.1040 C   0  0  0  0  0  0  0  0  0  0  0  0
   12.4320   38.6240   11.0740 C   0  0  0  0  0  0  0  0  0  0  0  0
   12.4190   38.7710   12.4500 C   0  0  0  0  0  0  0  0  0  0  0  0
   13.4930   39.2690   13.3660 C   0  0  0  0  0  0  0  0  0  0  0  0
   14.3770   38.4710   13.7440 O   0  0  0  0  0  0  0  0  0  0  0  0
   13.4930   40.4550   13.7610 O   0  0  0  0  0  1  0  0  0  0  0  0
   11.1700   38.3370   12.9410 N   0  0  0  0  0  0  0  0  0  0  0  0
   10.6940   38.3150   14.3280 C   0  0  0  0  0  0  0  0  0  0  0  0
   11.3040   37.2110   15.2010 C   0  0  0  0  0  0  0  0  0  0  0  0
   12.5010   37.4370   15.9270 C   0  0  0  0  0  0  0  0  0  0  0  0
   13.0630   36.4280   16.7280 C   0  0  0  0  0  0  0  0  0  0  0  0
   12.4400   35.1730   16.8180 C   0  0  0  0  0  0  0  0  0  0  0  0
   11.2510   34.9240   16.1060 C   0  0  0  0  0  0  0  0  0  0  0  0
   10.6390   33.6570   16.2070 C   0  0  0  0  0  0  0  0  0  0  0  0
    9.4520   33.3850   15.5040 C   0  0  0  0  0  0  0  0  0  0  0  0
    8.8730   34.3820   14.6980 C   0  0  0  0  0  0  0  0  0  0  0  0
    9.4800   35.6480   14.5920 C   0  0  0  0  0  0  0  0  0  0  0  0
   10.6760   35.9390   15.2930 C   0  0  0  0  0  0  0  0  0  0  0  0
   10.3830   37.9110   11.8790 C   0  0  0  0  0  0  0  0  0  0  0  0
    9.0780   37.3800   11.8300 C   0  0  0  0  0  0  0  0  0  0  0  0
    8.5080   37.0340   10.5940 C   0  0  0  0  0  0  0  0  0  0  0  0
    9.2430   37.2210    9.4110 C   0  0  0  0  0  0  0  0  0  0  0  0
    8.6980   36.8930    8.2150 F   0  0  0  0  0  0  0  0  0  0  0  0
   10.5480   37.7490    9.4680 C   0  0  0  0  0  0  0  0  0  0  0  0
   11.1510   38.1010   10.6990 C   0  0  0  0  0  0  0  0  0  0  0  0
   15.6736   41.7015   12.5179 H   0  0  0  0  0  0  0  0  0  0  0  0
   14.7958   40.5044   11.5065 H   0  0  0  0  0  0  0  0  0  0  0  0
   16.5918   40.5351   11.5065 H   0  0  0  0  0  0  0  0  0  0  0  0
   16.0223   43.1273   10.7514 H   0  0  0  0  0  0  0  0  0  0  0  0
   16.3242   41.7863    9.5978 H   0  0  0  0  0  0  0  0  0  0  0  0
   12.6786   41.0436    7.7188 H   0  0  0  0  0  0  0  0  0  0  0  0
   14.4032   40.5474    7.6393 H   0  0  0  0  0  0  0  0  0  0  0  0
   13.1093   39.3015    7.6393 H   0  0  0  0  0  0  0  0  0  0  0  0
   13.5256   38.1403    9.3044 H   0  0  0  0  0  0  0  0  0  0  0  0
   14.5037   38.8465   10.6637 H   0  0  0  0  0  0  0  0  0  0  0  0
   10.9333   39.2855   14.7872 H   0  0  0  0  0  0  0  0  0  0  0  0
    9.6141   38.1109   14.2811 H   0  0  0  0  0  0  0  0  0  0  0  0
   12.9971   38.4166   15.8623 H   0  0  0  0  0  0  0  0  0  0  0  0
   13.9917   36.6217   17.2848 H   0  0  0  0  0  0  0  0  0  0  0  0
   12.8809   34.3840   17.4450 H   0  0  0  0  0  0  0  0  0  0  0  0
   11.0923   32.8786   16.8384 H   0  0  0  0  0  0  0  0  0  0  0  0
    8.9777   32.3958   15.5840 H   0  0  0  0  0  0  0  0  0  0  0  0
    7.9433   34.1719   14.1489 H   0  0  0  0  0  0  0  0  0  0  0  0
    9.0202   36.4200   13.9575 H   0  0  0  0  0  0  0  0  0  0  0  0
    8.5067   37.2368   12.7590 H   0  0  0  0  0  0  0  0  0  0  0  0
    7.4904   36.6183   10.5521 H   0  0  0  0  0  0  0  0  0  0  0  0
   11.1113   37.8909    8.5339 H   0  0  0  0  0  0  0  0  0  0  0  0
  1  2  1  0
  2  3  1  0
  3  4  1  0
  4  5  2  0
  4  6  1  0
  6  7  1  0
  6  8  1  0
  8  9  1  0
  9 10  2  0
 10 11  1  0
 11 12  2  0
 11 13  1  0
 10 14  1  0
 14 15  1  0
 15 16  1  0
 16 17  2  0
 17 18  1  0
 18 19  2  0
 19 20  1  0
 20 21  2  0
 21 22  1  0
 22 23  2  0
 23 24  1  0
 24 25  2  0
 14 26  1  0
 26 27  2  0
 27 28  1  0
 28 29  2  0
 29 30  1  0
 29 31  1  0
 31 32  2  0
 32  9  1  0
 25 16  1  0
 32 26  1  0
 25 20  1  0
  1 33  1  0
  1 34  1  0
  1 35  1  0
  2 36  1  0
  2 37  1  0
  7 38  1  0
  7 39  1  0
  7 40  1  0
  8 41  1  0
  8 42  1  0
 15 43  1  0
 15 44  1  0
 17 45  1  0
 18 46  1  0
 19 47  1  0
 21 48  1  0
 22 49  1  0
 23 50  1  0
 24 51  1  0
 27 52  1  0
 28 53  1  0
 31 54  1  0
M  CHG  1  13  -1
M  END
>  <meeko>  (248) 
{"free_energy": -4.86, "intermolecular_energy": -7.25, "internal_energy": -2.14, "cluster_size": 5, "cluster_id": 194, "rank_in_cluster": 1}

$$$$

     RDKit          3D

 54 57  0  0  0  0  0  0  0  0999 V2000
    9.9810   38.6840   15.9160 C   0  0  0  0  0  0  0  0  0  0  0  0
   11.0670   37.9390   15.1360 C   0  0  0  0  0  0  0  0  0  0  0  0
   11.4900   38.7400   14.0440 O   0  0  0  0  0  0  0  0  0  0  0  0
   12.7750   39.1470   13.9620 C   0  0  0  0  0  0  0  0  0  0  0  0
   13.6780   38.4520   13.4920 O   0  0  0  0  0  0  0  0  0  0  0  0
   12.9130   40.4440   14.4730 N   0  0  0  0  0  0  0  0  0  0  0  0
   13.4920   40.7050   15.7950 C   0  0  0  0  0  0  0  0  0  0  0  0
   12.4540   41.6150   13.7130 C   0  0  0  0  0  0  0  0  0  0  0  0
   11.7370   41.2260   12.4410 C   0  0  0  0  0  0  0  0  0  0  0  0
   10.3990   41.3730   12.1210 C   0  0  0  0  0  0  0  0  0  0  0  0
    9.2890   41.9850   12.9170 C   0  0  0  0  0  0  0  0  0  0  0  0
    8.4600   42.7120   12.3300 O   0  0  0  0  0  0  0  0  0  0  0  0
    9.2050   41.7870   14.1480 O   0  0  0  0  0  1  0  0  0  0  0  0
   10.1720   40.8080   10.8480 N   0  0  0  0  0  0  0  0  0  0  0  0
    8.9170   40.7380   10.0930 C   0  0  0  0  0  0  0  0  0  0  0  0
    8.5680   39.3460    9.5510 C   0  0  0  0  0  0  0  0  0  0  0  0
    8.0640   39.1840    8.2360 C   0  0  0  0  0  0  0  0  0  0  0  0
    7.7430   37.9110    7.7360 C   0  0  0  0  0  0  0  0  0  0  0  0
    7.9170   36.7740    8.5420 C   0  0  0  0  0  0  0  0  0  0  0  0
    8.4140   36.9090    9.8520 C   0  0  0  0  0  0  0  0  0  0  0  0
    8.5820   35.7570   10.6480 C   0  0  0  0  0  0  0  0  0  0  0  0
    9.0770   35.8680   11.9600 C   0  0  0  0  0  0  0  0  0  0  0  0
    9.4050   37.1330   12.4790 C   0  0  0  0  0  0  0  0  0  0  0  0
    9.2390   38.2870   11.6900 C   0  0  0  0  0  0  0  0  0  0  0  0
    8.7420   38.1940   10.3660 C   0  0  0  0  0  0  0  0  0  0  0  0
   11.3660   40.2990   10.3540 C   0  0  0  0  0  0  0  0  0  0  0  0
   11.6760   39.6300    9.1510 C   0  0  0  0  0  0  0  0  0  0  0  0
   12.9960   39.2230    8.8970 C   0  0  0  0  0  0  0  0  0  0  0  0
   14.0010   39.4860    9.8430 C   0  0  0  0  0  0  0  0  0  0  0  0
   15.2770   39.1000    9.6020 F   0  0  0  0  0  0  0  0  0  0  0  0
   13.6830   40.1510   11.0430 C   0  0  0  0  0  0  0  0  0  0  0  0
   12.3610   40.5680   11.3310 C   0  0  0  0  0  0  0  0  0  0  0  0
   10.1567   38.5635   16.9952 H   0  0  0  0  0  0  0  0  0  0  0  0
   10.0110   39.7526   15.6567 H   0  0  0  0  0  0  0  0  0  0  0  0
    8.9949   38.2713   15.6567 H   0  0  0  0  0  0  0  0  0  0  0  0
   11.9224   37.7375   15.7976 H   0  0  0  0  0  0  0  0  0  0  0  0
   10.6650   36.9861   14.7613 H   0  0  0  0  0  0  0  0  0  0  0  0
   12.7845   40.3861   16.5746 H   0  0  0  0  0  0  0  0  0  0  0  0
   14.4320   40.1435   15.9010 H   0  0  0  0  0  0  0  0  0  0  0  0
   13.6938   41.7811   15.9010 H   0  0  0  0  0  0  0  0  0  0  0  0
   11.7663   42.1985   14.3428 H   0  0  0  0  0  0  0  0  0  0  0  0
   13.3399   42.2044   13.4340 H   0  0  0  0  0  0  0  0  0  0  0  0
    8.1007   41.0616   10.7556 H   0  0  0  0  0  0  0  0  0  0  0  0
    9.0476   41.3879    9.2151 H   0  0  0  0  0  0  0  0  0  0  0  0
    7.9221   40.0684    7.5975 H   0  0  0  0  0  0  0  0  0  0  0  0
    7.3550   37.8046    6.7122 H   0  0  0  0  0  0  0  0  0  0  0  0
    7.6648   35.7778    8.1494 H   0  0  0  0  0  0  0  0  0  0  0  0
    8.3249   34.7678   10.2413 H   0  0  0  0  0  0  0  0  0  0  0  0
    9.2071   34.9676   12.5783 H   0  0  0  0  0  0  0  0  0  0  0  0
    9.7925   37.2212   13.5047 H   0  0  0  0  0  0  0  0  0  0  0  0
    9.4979   39.2719   12.1058 H   0  0  0  0  0  0  0  0  0  0  0  0
   10.8854   39.4276    8.4135 H   0  0  0  0  0  0  0  0  0  0  0  0
   13.2421   38.7003    7.9609 H   0  0  0  0  0  0  0  0  0  0  0  0
   14.4805   40.3511   11.7737 H   0  0  0  0  0  0  0  0  0  0  0  0
  1  2  1  0
  2  3  1  0
  3  4  1  0
  4  5  2  0
  4  6  1  0
  6  7  1  0
  6  8  1  0
  8  9  1  0
  9 10  2  0
 10 11  1  0
 11 12  2  0
 11 13  1  0
 10 14  1  0
 14 15  1  0
 15 16  1  0
 16 17  2  0
 17 18  1  0
 18 19  2  0
 19 20  1  0
 20 21  2  0
 21 22  1  0
 22 23  2  0
 23 24  1  0
 24 25  2  0
 14 26  1  0
 26 27  2  0
 27 28  1  0
 28 29  2  0
 29 30  1  0
 29 31  1  0
 31 32  2  0
 32  9  1  0
 25 16  1  0
 32 26  1  0
 25 20  1  0
  1 33  1  0
  1 34  1  0
  1 35  1  0
  2 36  1  0
  2 37  1  0
  7 38  1  0
  7 39  1  0
  7 40  1  0
  8 41  1  0
  8 42  1  0
 15 43  1  0
 15 44  1  0
 17 45  1  0
 18 46  1  0
 19 47  1  0
 21 48  1  0
 22 49  1  0
 23 50  1  0
 24 51  1  0
 27 52  1  0
 28 53  1  0
 31 54  1  0
M  CHG  1  13  -1
M  END
>  <meeko>  (249) 
{"free_energy": -5.61, "intermolecular_energy": -8.0, "internal_energy": -2.5, "cluster_size": 210, "cluster_id": 15, "rank_in_cluster": 131}

$$$$

     RDKit          3D

 54 57  0  0  0  0  0  0  0  0999 V2000
   12.6730   40.5250    9.1120 C   0  0  0  0  0  0  0  0  0  0  0  0
   12.1280   41.2900   10.3210 C   0  0  0  0  0  0  0  0  0  0  0  0
   13.2140   41.7580   11.1050 O   0  0  0  0  0  0  0  0  0  0  0  0
   13.4580   41.2130   12.3150 C   0  0  0  0  0  0  0  0  0  0  0  0
   13.4230   41.8530   13.3670 O   0  0  0  0  0  0  0  0  0  0  0  0
   13.7420   39.8470   12.1900 N   0  0  0  0  0  0  0  0  0  0  0  0
   15.0230   39.3610   11.6650 C   0  0  0  0  0  0  0  0  0  0  0  0
   12.7510   38.8260   12.5550 C   0  0  0  0  0  0  0  0  0  0  0  0
   12.6670   38.6190   14.0490 C   0  0  0  0  0  0  0  0  0  0  0  0
   11.5440   38.4280   14.8350 C   0  0  0  0  0  0  0  0  0  0  0  0
   10.1050   38.3370   14.4370 C   0  0  0  0  0  0  0  0  0  0  0  0
    9.2780   39.0890   14.9970 O   0  0  0  0  0  0  0  0  0  0  0  0
    9.7340   37.5110   13.5740 O   0  0  0  0  0  1  0  0  0  0  0  0
   11.9440   38.3440   16.1860 N   0  0  0  0  0  0  0  0  0  0  0  0
   11.1080   38.1360   17.3720 C   0  0  0  0  0  0  0  0  0  0  0  0
   10.0220   37.0640   17.2150 C   0  0  0  0  0  0  0  0  0  0  0  0
    8.6760   37.3370   17.5660 C   0  0  0  0  0  0  0  0  0  0  0  0
    7.6770   36.3580   17.4240 C   0  0  0  0  0  0  0  0  0  0  0  0
    8.0070   35.0860   16.9300 C   0  0  0  0  0  0  0  0  0  0  0  0
    9.3360   34.7890   16.5760 C   0  0  0  0  0  0  0  0  0  0  0  0
    9.6490   33.5060   16.0820 C   0  0  0  0  0  0  0  0  0  0  0  0
   10.9710   33.1870   15.7220 C   0  0  0  0  0  0  0  0  0  0  0  0
   11.9840   34.1530   15.8560 C   0  0  0  0  0  0  0  0  0  0  0  0
   11.6790   35.4360   16.3500 C   0  0  0  0  0  0  0  0  0  0  0  0
   10.3520   35.7740   16.7160 C   0  0  0  0  0  0  0  0  0  0  0  0
   13.3240   38.4810   16.2640 C   0  0  0  0  0  0  0  0  0  0  0  0
   14.2070   38.4850   17.3630 C   0  0  0  0  0  0  0  0  0  0  0  0
   15.5880   38.6360   17.1520 C   0  0  0  0  0  0  0  0  0  0  0  0
   16.0810   38.7810   15.8440 C   0  0  0  0  0  0  0  0  0  0  0  0
   17.4110   38.9230   15.6330 F   0  0  0  0  0  0  0  0  0  0  0  0
   15.1920   38.7800   14.7510 C   0  0  0  0  0  0  0  0  0  0  0  0
   13.7950   38.6360   14.9330 C   0  0  0  0  0  0  0  0  0  0  0  0
   13.2787   39.6748    9.4587 H   0  0  0  0  0  0  0  0  0  0  0  0
   11.8344   40.1542    8.5043 H   0  0  0  0  0  0  0  0  0  0  0  0
   13.2974   41.1964    8.5043 H   0  0  0  0  0  0  0  0  0  0  0  0
   11.5282   42.1450    9.9756 H   0  0  0  0  0  0  0  0  0  0  0  0
   11.4957   40.6234   10.9258 H   0  0  0  0  0  0  0  0  0  0  0  0
   15.6901   39.1079   12.5022 H   0  0  0  0  0  0  0  0  0  0  0  0
   14.8511   38.4656   11.0496 H   0  0  0  0  0  0  0  0  0  0  0  0
   15.4882   40.1451   11.0496 H   0  0  0  0  0  0  0  0  0  0  0  0
   11.7644   39.1421   12.1854 H   0  0  0  0  0  0  0  0  0  0  0  0
   13.0637   37.8747   12.0998 H   0  0  0  0  0  0  0  0  0  0  0  0
   11.7631   37.8398   18.2045 H   0  0  0  0  0  0  0  0  0  0  0  0
   10.5818   39.0855   17.5497 H   0  0  0  0  0  0  0  0  0  0  0  0
    8.4090   38.3304   17.9556 H   0  0  0  0  0  0  0  0  0  0  0  0
    6.6374   36.5886   17.6998 H   0  0  0  0  0  0  0  0  0  0  0  0
    7.2252   34.3201   16.8195 H   0  0  0  0  0  0  0  0  0  0  0  0
    8.8558   32.7510   15.9776 H   0  0  0  0  0  0  0  0  0  0  0  0
   11.2115   32.1851   15.3369 H   0  0  0  0  0  0  0  0  0  0  0  0
   13.0181   33.9057   15.5740 H   0  0  0  0  0  0  0  0  0  0  0  0
   12.4791   36.1838   16.4529 H   0  0  0  0  0  0  0  0  0  0  0  0
   13.8153   38.3701   18.3845 H   0  0  0  0  0  0  0  0  0  0  0  0
   16.2802   38.6407   18.0069 H   0  0  0  0  0  0  0  0  0  0  0  0
   15.5923   38.8937   13.7327 H   0  0  0  0  0  0  0  0  0  0  0  0
  1  2  1  0
  2  3  1  0
  3  4  1  0
  4  5  2  0
  4  6  1  0
  6  7  1  0
  6  8  1  0
  8  9  1  0
  9 10  2  0
 10 11  1  0
 11 12  2  0
 11 13  1  0
 10 14  1  0
 14 15  1  0
 15 16  1  0
 16 17  2  0
 17 18  1  0
 18 19  2  0
 19 20  1  0
 20 21  2  0
 21 22  1  0
 22 23  2  0
 23 24  1  0
 24 25  2  0
 14 26  1  0
 26 27  2  0
 27 28  1  0
 28 29  2  0
 29 30  1  0
 29 31  1  0
 31 32  2  0
 32  9  1  0
 25 16  1  0
 32 26  1  0
 25 20  1  0
  1 33  1  0
  1 34  1  0
  1 35  1  0
  2 36  1  0
  2 37  1  0
  7 38  1  0
  7 39  1  0
  7 40  1  0
  8 41  1  0
  8 42  1  0
 15 43  1  0
 15 44  1  0
 17 45  1  0
 18 46  1  0
 19 47  1  0
 21 48  1  0
 22 49  1  0
 23 50  1  0
 24 51  1  0
 27 52  1  0
 28 53  1  0
 31 54  1  0
M  CHG  1  13  -1
M  END
>  <meeko>  (250) 
{"free_energy": -3.55, "intermolecular_energy": -5.93, "internal_energy": -2.05, "cluster_size": 38, "cluster_id": 116, "rank_in_cluster": 38}

$$$$

     RDKit          3D

 54 57  0  0  0  0  0  0  0  0999 V2000
    8.5260   39.9990    9.7550 C   0  0  0  0  0  0  0  0  0  0  0  0
    9.2200   39.0470    8.7780 C   0  0  0  0  0  0  0  0  0  0  0  0
    8.4100   37.8970    8.5920 O   0  0  0  0  0  0  0  0  0  0  0  0
    8.1250   37.0940    9.6400 C   0  0  0  0  0  0  0  0  0  0  0  0
    7.3820   37.4260   10.5650 O   0  0  0  0  0  0  0  0  0  0  0  0
    8.7790   35.8630    9.5070 N   0  0  0  0  0  0  0  0  0  0  0  0
    8.2670   34.7950    8.6410 C   0  0  0  0  0  0  0  0  0  0  0  0
   10.0060   35.5680   10.2590 C   0  0  0  0  0  0  0  0  0  0  0  0
   10.2510   36.5630   11.3680 C   0  0  0  0  0  0  0  0  0  0  0  0
    9.6270   36.6600   12.6000 C   0  0  0  0  0  0  0  0  0  0  0  0
    8.5640   35.7960   13.2010 C   0  0  0  0  0  0  0  0  0  0  0  0
    8.4440   35.7690   14.4450 O   0  0  0  0  0  0  0  0  0  0  0  0
    7.8230   35.0990   12.4730 O   0  0  0  0  0  1  0  0  0  0  0  0
   10.1380   37.7860   13.2810 N   0  0  0  0  0  0  0  0  0  0  0  0
    9.7870   38.2790   14.6150 C   0  0  0  0  0  0  0  0  0  0  0  0
   10.5800   37.6470   15.7670 C   0  0  0  0  0  0  0  0  0  0  0  0
   11.4550   36.5570   15.5320 C   0  0  0  0  0  0  0  0  0  0  0  0
   12.1840   35.9740   16.5840 C   0  0  0  0  0  0  0  0  0  0  0  0
   12.0490   36.4710   17.8900 C   0  0  0  0  0  0  0  0  0  0  0  0
   11.1860   37.5510   18.1490 C   0  0  0  0  0  0  0  0  0  0  0  0
   11.0630   38.0370   19.4670 C   0  0  0  0  0  0  0  0  0  0  0  0
   10.2060   39.1150   19.7490 C   0  0  0  0  0  0  0  0  0  0  0  0
    9.4690   39.7120   18.7110 C   0  0  0  0  0  0  0  0  0  0  0  0
    9.5860   39.2320   17.3920 C   0  0  0  0  0  0  0  0  0  0  0  0
   10.4450   38.1460   17.0910 C   0  0  0  0  0  0  0  0  0  0  0  0
   11.0890   38.4100   12.4850 C   0  0  0  0  0  0  0  0  0  0  0  0
   11.8750   39.5630   12.6880 C   0  0  0  0  0  0  0  0  0  0  0  0
   12.7840   39.9750   11.6990 C   0  0  0  0  0  0  0  0  0  0  0  0
   12.9060   39.2320   10.5120 C   0  0  0  0  0  0  0  0  0  0  0  0
   13.7840   39.6210    9.5570 F   0  0  0  0  0  0  0  0  0  0  0  0
   12.1160   38.0830   10.3150 C   0  0  0  0  0  0  0  0  0  0  0  0
   11.1860   37.6470   11.2900 C   0  0  0  0  0  0  0  0  0  0  0  0
    8.7497   39.6921   10.7874 H   0  0  0  0  0  0  0  0  0  0  0  0
    8.8905   41.0236    9.5899 H   0  0  0  0  0  0  0  0  0  0  0  0
    7.4390   39.9655    9.5899 H   0  0  0  0  0  0  0  0  0  0  0  0
    9.3670   39.5535    7.8127 H   0  0  0  0  0  0  0  0  0  0  0  0
   10.1976   38.7485    9.1845 H   0  0  0  0  0  0  0  0  0  0  0  0
    7.8744   33.9761    9.2618 H   0  0  0  0  0  0  0  0  0  0  0  0
    7.4615   35.1923    8.0060 H   0  0  0  0  0  0  0  0  0  0  0  0
    9.0812   34.4158    8.0060 H   0  0  0  0  0  0  0  0  0  0  0  0
    9.9190   34.5632   10.6980 H   0  0  0  0  0  0  0  0  0  0  0  0
   10.8526   35.6285    9.5592 H   0  0  0  0  0  0  0  0  0  0  0  0
    9.9621   39.3648   14.6350 H   0  0  0  0  0  0  0  0  0  0  0  0
    8.7344   38.0045   14.7781 H   0  0  0  0  0  0  0  0  0  0  0  0
   11.5655   36.1612   14.5117 H   0  0  0  0  0  0  0  0  0  0  0  0
   12.8594   35.1292   16.3836 H   0  0  0  0  0  0  0  0  0  0  0  0
   12.6194   36.0148   18.7125 H   0  0  0  0  0  0  0  0  0  0  0  0
   11.6405   37.5702   20.2785 H   0  0  0  0  0  0  0  0  0  0  0  0
   10.1122   39.4904   20.7787 H   0  0  0  0  0  0  0  0  0  0  0  0
    8.7990   40.5565   18.9297 H   0  0  0  0  0  0  0  0  0  0  0  0
    9.0044   39.7052   16.5871 H   0  0  0  0  0  0  0  0  0  0  0  0
   11.7766   40.1393   13.6197 H   0  0  0  0  0  0  0  0  0  0  0  0
   13.3975   40.8750   11.8529 H   0  0  0  0  0  0  0  0  0  0  0  0
   12.2238   37.5107    9.3818 H   0  0  0  0  0  0  0  0  0  0  0  0
  1  2  1  0
  2  3  1  0
  3  4  1  0
  4  5  2  0
  4  6  1  0
  6  7  1  0
  6  8  1  0
  8  9  1  0
  9 10  2  0
 10 11  1  0
 11 12  2  0
 11 13  1  0
 10 14  1  0
 14 15  1  0
 15 16  1  0
 16 17  2  0
 17 18  1  0
 18 19  2  0
 19 20  1  0
 20 21  2  0
 21 22  1  0
 22 23  2  0
 23 24  1  0
 24 25  2  0
 14 26  1  0
 26 27  2  0
 27 28  1  0
 28 29  2  0
 29 30  1  0
 29 31  1  0
 31 32  2  0
 32  9  1  0
 25 16  1  0
 32 26  1  0
 25 20  1  0
  1 33  1  0
  1 34  1  0
  1 35  1  0
  2 36  1  0
  2 37  1  0
  7 38  1  0
  7 39  1  0
  7 40  1  0
  8 41  1  0
  8 42  1  0
 15 43  1  0
 15 44  1  0
 17 45  1  0
 18 46  1  0
 19 47  1  0
 21 48  1  0
 22 49  1  0
 23 50  1  0
 24 51  1  0
 27 52  1  0
 28 53  1  0
 31 54  1  0
M  CHG  1  13  -1
M  END
>  <meeko>  (251) 
{"free_energy": -5.3, "intermolecular_energy": -7.69, "internal_energy": -2.15, "cluster_size": 109, "cluster_id": 6, "rank_in_cluster": 101}

$$$$

     RDKit          3D

 54 57  0  0  0  0  0  0  0  0999 V2000
   17.4270   37.2330   12.1140 C   0  0  0  0  0  0  0  0  0  0  0  0
   16.7080   37.9190   13.2780 C   0  0  0  0  0  0  0  0  0  0  0  0
   15.7810   38.8620   12.7650 O   0  0  0  0  0  0  0  0  0  0  0  0
   15.5070   39.9880   13.4580 C   0  0  0  0  0  0  0  0  0  0  0  0
   16.2860   40.9390   13.5400 O   0  0  0  0  0  0  0  0  0  0  0  0
   14.2370   39.9070   14.0440 N   0  0  0  0  0  0  0  0  0  0  0  0
   13.8540   38.8000   14.9260 C   0  0  0  0  0  0  0  0  0  0  0  0
   13.2100   40.9230   13.7770 C   0  0  0  0  0  0  0  0  0  0  0  0
   12.3440   40.5630   12.5920 C   0  0  0  0  0  0  0  0  0  0  0  0
   10.9680   40.4290   12.5330 C   0  0  0  0  0  0  0  0  0  0  0  0
    9.9430   40.6330   13.6030 C   0  0  0  0  0  0  0  0  0  0  0  0
   10.0280   39.9600   14.6530 O   0  0  0  0  0  0  0  0  0  0  0  0
    9.0080   41.4480   13.4430 O   0  0  0  0  0  1  0  0  0  0  0  0
   10.6070   40.0180   11.2320 N   0  0  0  0  0  0  0  0  0  0  0  0
    9.2670   39.7590   10.6980 C   0  0  0  0  0  0  0  0  0  0  0  0
    9.0240   38.3150   10.2390 C   0  0  0  0  0  0  0  0  0  0  0  0
    9.5390   37.2210   10.9790 C   0  0  0  0  0  0  0  0  0  0  0  0
    9.3180   35.8970   10.5630 C   0  0  0  0  0  0  0  0  0  0  0  0
    8.5800   35.6420    9.3960 C   0  0  0  0  0  0  0  0  0  0  0  0
    8.0600   36.7110    8.6420 C   0  0  0  0  0  0  0  0  0  0  0  0
    7.3210   36.4360    7.4730 C   0  0  0  0  0  0  0  0  0  0  0  0
    6.7920   37.4880    6.7050 C   0  0  0  0  0  0  0  0  0  0  0  0
    7.0010   38.8200    7.1050 C   0  0  0  0  0  0  0  0  0  0  0  0
    7.7380   39.1010    8.2710 C   0  0  0  0  0  0  0  0  0  0  0  0
    8.2780   38.0530    9.0570 C   0  0  0  0  0  0  0  0  0  0  0  0
   11.7540   39.8880   10.4590 C   0  0  0  0  0  0  0  0  0  0  0  0
   11.9430   39.4960    9.1170 C   0  0  0  0  0  0  0  0  0  0  0  0
   13.2380   39.4600    8.5740 C   0  0  0  0  0  0  0  0  0  0  0  0
   14.3380   39.8160    9.3720 C   0  0  0  0  0  0  0  0  0  0  0  0
   15.5890   39.7860    8.8530 F   0  0  0  0  0  0  0  0  0  0  0  0
   14.1420   40.2020   10.7120 C   0  0  0  0  0  0  0  0  0  0  0  0
   12.8500   40.2420   11.2900 C   0  0  0  0  0  0  0  0  0  0  0  0
   18.1699   36.5242   12.5085 H   0  0  0  0  0  0  0  0  0  0  0  0
   16.6939   36.6911   11.4984 H   0  0  0  0  0  0  0  0  0  0  0  0
   17.9339   37.9907   11.4984 H   0  0  0  0  0  0  0  0  0  0  0  0
   16.1735   37.1656   13.8752 H   0  0  0  0  0  0  0  0  0  0  0  0
   17.4434   38.4333   13.9142 H   0  0  0  0  0  0  0  0  0  0  0  0
   13.9622   39.1127   15.9750 H   0  0  0  0  0  0  0  0  0  0  0  0
   12.8075   38.5221   14.7323 H   0  0  0  0  0  0  0  0  0  0  0  0
   14.5050   37.9348   14.7323 H   0  0  0  0  0  0  0  0  0  0  0  0
   12.5700   41.0218   14.6662 H   0  0  0  0  0  0  0  0  0  0  0  0
   13.7228   41.8682   13.5452 H   0  0  0  0  0  0  0  0  0  0  0  0
    8.5342   39.9961   11.4833 H   0  0  0  0  0  0  0  0  0  0  0  0
    9.1638   40.3895    9.8026 H   0  0  0  0  0  0  0  0  0  0  0  0
   10.1206   37.4114   11.8930 H   0  0  0  0  0  0  0  0  0  0  0  0
    9.7231   35.0606   11.1515 H   0  0  0  0  0  0  0  0  0  0  0  0
    8.4079   34.6054    9.0705 H   0  0  0  0  0  0  0  0  0  0  0  0
    7.1577   35.3940    7.1607 H   0  0  0  0  0  0  0  0  0  0  0  0
    6.2161   37.2699    5.7935 H   0  0  0  0  0  0  0  0  0  0  0  0
    6.5876   39.6443    6.5053 H   0  0  0  0  0  0  0  0  0  0  0  0
    7.8965   40.1461    8.5754 H   0  0  0  0  0  0  0  0  0  0  0  0
   11.0777   39.2190    8.4969 H   0  0  0  0  0  0  0  0  0  0  0  0
   13.3901   39.1543    7.5283 H   0  0  0  0  0  0  0  0  0  0  0  0
   15.0130   40.4789   11.3241 H   0  0  0  0  0  0  0  0  0  0  0  0
  1  2  1  0
  2  3  1  0
  3  4  1  0
  4  5  2  0
  4  6  1  0
  6  7  1  0
  6  8  1  0
  8  9  1  0
  9 10  2  0
 10 11  1  0
 11 12  2  0
 11 13  1  0
 10 14  1  0
 14 15  1  0
 15 16  1  0
 16 17  2  0
 17 18  1  0
 18 19  2  0
 19 20  1  0
 20 21  2  0
 21 22  1  0
 22 23  2  0
 23 24  1  0
 24 25  2  0
 14 26  1  0
 26 27  2  0
 27 28  1  0
 28 29  2  0
 29 30  1  0
 29 31  1  0
 31 32  2  0
 32  9  1  0
 25 16  1  0
 32 26  1  0
 25 20  1  0
  1 33  1  0
  1 34  1  0
  1 35  1  0
  2 36  1  0
  2 37  1  0
  7 38  1  0
  7 39  1  0
  7 40  1  0
  8 41  1  0
  8 42  1  0
 15 43  1  0
 15 44  1  0
 17 45  1  0
 18 46  1  0
 19 47  1  0
 21 48  1  0
 22 49  1  0
 23 50  1  0
 24 51  1  0
 27 52  1  0
 28 53  1  0
 31 54  1  0
M  CHG  1  13  -1
M  END
>  <meeko>  (252) 
{"free_energy": -6.31, "intermolecular_energy": -8.7, "internal_energy": -1.86, "cluster_size": 167, "cluster_id": 22, "rank_in_cluster": 10}

$$$$

     RDKit          3D

 54 57  0  0  0  0  0  0  0  0999 V2000
   12.7990   36.4820   21.8610 C   0  0  0  0  0  0  0  0  0  0  0  0
   11.8050   36.6760   20.7140 C   0  0  0  0  0  0  0  0  0  0  0  0
   12.5020   36.6360   19.4790 O   0  0  0  0  0  0  0  0  0  0  0  0
   13.6820   37.2780   19.3480 C   0  0  0  0  0  0  0  0  0  0  0  0
   13.9630   38.3120   19.9570 O   0  0  0  0  0  0  0  0  0  0  0  0
   14.5120   36.6020   18.4440 N   0  0  0  0  0  0  0  0  0  0  0  0
   15.6940   35.8520   18.8820 C   0  0  0  0  0  0  0  0  0  0  0  0
   14.2520   36.6360   16.9990 C   0  0  0  0  0  0  0  0  0  0  0  0
   12.7770   36.7140   16.6840 C   0  0  0  0  0  0  0  0  0  0  0  0
   11.9210   37.7940   16.8050 C   0  0  0  0  0  0  0  0  0  0  0  0
   12.2100   39.1950   17.2450 C   0  0  0  0  0  0  0  0  0  0  0  0
   13.3620   39.4750   17.6400 O   0  0  0  0  0  0  0  0  0  0  0  0
   11.3100   40.0630   17.2350 O   0  0  0  0  0  1  0  0  0  0  0  0
   10.6170   37.3820   16.4560 N   0  0  0  0  0  0  0  0  0  0  0  0
    9.3880   38.1800   16.4240 C   0  0  0  0  0  0  0  0  0  0  0  0
    8.7290   38.4050   17.7920 C   0  0  0  0  0  0  0  0  0  0  0  0
    8.9350   39.6100   18.5080 C   0  0  0  0  0  0  0  0  0  0  0  0
    8.3330   39.8200   19.7600 C   0  0  0  0  0  0  0  0  0  0  0  0
    7.5150   38.8270   20.3220 C   0  0  0  0  0  0  0  0  0  0  0  0
    7.2960   37.6200   19.6310 C   0  0  0  0  0  0  0  0  0  0  0  0
    6.4720   36.6330   20.2100 C   0  0  0  0  0  0  0  0  0  0  0  0
    6.2400   35.4190   19.5380 C   0  0  0  0  0  0  0  0  0  0  0  0
    6.8320   35.1910   18.2830 C   0  0  0  0  0  0  0  0  0  0  0  0
    7.6570   36.1720   17.7000 C   0  0  0  0  0  0  0  0  0  0  0  0
    7.9010   37.4000   18.3630 C   0  0  0  0  0  0  0  0  0  0  0  0
   10.6390   36.0370   16.1120 C   0  0  0  0  0  0  0  0  0  0  0  0
    9.6170   35.1540   15.7090 C   0  0  0  0  0  0  0  0  0  0  0  0
    9.9250   33.8170   15.4060 C   0  0  0  0  0  0  0  0  0  0  0  0
   11.2530   33.3680   15.5070 C   0  0  0  0  0  0  0  0  0  0  0  0
   11.5570   32.0810   15.2140 F   0  0  0  0  0  0  0  0  0  0  0  0
   12.2680   34.2550   15.9150 C   0  0  0  0  0  0  0  0  0  0  0  0
   11.9870   35.6060   16.2320 C   0  0  0  0  0  0  0  0  0  0  0  0
   12.2742   36.5844   22.8223 H   0  0  0  0  0  0  0  0  0  0  0  0
   13.2467   35.4795   21.7926 H   0  0  0  0  0  0  0  0  0  0  0  0
   13.5908   37.2426   21.7926 H   0  0  0  0  0  0  0  0  0  0  0  0
   11.0540   35.8726   20.7385 H   0  0  0  0  0  0  0  0  0  0  0  0
   11.3018   37.6482   20.8223 H   0  0  0  0  0  0  0  0  0  0  0  0
   15.7280   35.8304   19.9813 H   0  0  0  0  0  0  0  0  0  0  0  0
   15.6390   34.8232   18.4966 H   0  0  0  0  0  0  0  0  0  0  0  0
   16.6014   36.3399   18.4966 H   0  0  0  0  0  0  0  0  0  0  0  0
   14.7524   37.5167   16.5701 H   0  0  0  0  0  0  0  0  0  0  0  0
   14.6400   35.7026   16.5651 H   0  0  0  0  0  0  0  0  0  0  0  0
    9.6301   39.1636   15.9952 H   0  0  0  0  0  0  0  0  0  0  0  0
    8.6648   37.6096   15.8227 H   0  0  0  0  0  0  0  0  0  0  0  0
    9.5761   40.3932   18.0771 H   0  0  0  0  0  0  0  0  0  0  0  0
    8.5027   40.7631   20.3002 H   0  0  0  0  0  0  0  0  0  0  0  0
    7.0449   38.9921   21.3027 H   0  0  0  0  0  0  0  0  0  0  0  0
    6.0086   36.8130   21.1913 H   0  0  0  0  0  0  0  0  0  0  0  0
    5.5976   34.6506   19.9928 H   0  0  0  0  0  0  0  0  0  0  0  0
    6.6500   34.2433   17.7550 H   0  0  0  0  0  0  0  0  0  0  0  0
    8.1171   35.9828   16.7189 H   0  0  0  0  0  0  0  0  0  0  0  0
    8.5795   35.5112   15.6318 H   0  0  0  0  0  0  0  0  0  0  0  0
    9.1303   33.1247   15.0911 H   0  0  0  0  0  0  0  0  0  0  0  0
   13.3029   33.8898   15.9891 H   0  0  0  0  0  0  0  0  0  0  0  0
  1  2  1  0
  2  3  1  0
  3  4  1  0
  4  5  2  0
  4  6  1  0
  6  7  1  0
  6  8  1  0
  8  9  1  0
  9 10  2  0
 10 11  1  0
 11 12  2  0
 11 13  1  0
 10 14  1  0
 14 15  1  0
 15 16  1  0
 16 17  2  0
 17 18  1  0
 18 19  2  0
 19 20  1  0
 20 21  2  0
 21 22  1  0
 22 23  2  0
 23 24  1  0
 24 25  2  0
 14 26  1  0
 26 27  2  0
 27 28  1  0
 28 29  2  0
 29 30  1  0
 29 31  1  0
 31 32  2  0
 32  9  1  0
 25 16  1  0
 32 26  1  0
 25 20  1  0
  1 33  1  0
  1 34  1  0
  1 35  1  0
  2 36  1  0
  2 37  1  0
  7 38  1  0
  7 39  1  0
  7 40  1  0
  8 41  1  0
  8 42  1  0
 15 43  1  0
 15 44  1  0
 17 45  1  0
 18 46  1  0
 19 47  1  0
 21 48  1  0
 22 49  1  0
 23 50  1  0
 24 51  1  0
 27 52  1  0
 28 53  1  0
 31 54  1  0
M  CHG  1  13  -1
M  END
>  <meeko>  (253) 
{"free_energy": -3.89, "intermolecular_energy": -6.27, "internal_energy": -1.85, "cluster_size": 9, "cluster_id": 103, "rank_in_cluster": 8}

$$$$

     RDKit          3D

 54 57  0  0  0  0  0  0  0  0999 V2000
   15.5980   42.1930   13.6090 C   0  0  0  0  0  0  0  0  0  0  0  0
   15.5810   43.3330   12.5870 C   0  0  0  0  0  0  0  0  0  0  0  0
   14.3940   44.0910   12.7530 O   0  0  0  0  0  0  0  0  0  0  0  0
   13.4510   43.6880   13.6320 C   0  0  0  0  0  0  0  0  0  0  0  0
   13.4630   43.9930   14.8260 O   0  0  0  0  0  0  0  0  0  0  0  0
   12.4860   42.9010   12.9910 N   0  0  0  0  0  0  0  0  0  0  0  0
   11.4020   42.2420   13.7270 C   0  0  0  0  0  0  0  0  0  0  0  0
   12.5310   42.6720   11.5410 C   0  0  0  0  0  0  0  0  0  0  0  0
   12.3230   41.2190   11.1840 C   0  0  0  0  0  0  0  0  0  0  0  0
   11.1650   40.4660   11.2560 C   0  0  0  0  0  0  0  0  0  0  0  0
    9.7860   40.8740   11.6690 C   0  0  0  0  0  0  0  0  0  0  0  0
    9.1830   41.7300   10.9860 O   0  0  0  0  0  0  0  0  0  0  0  0
    9.2550   40.3820   12.6890 O   0  0  0  0  0  1  0  0  0  0  0  0
   11.4620   39.1380   10.8820 N   0  0  0  0  0  0  0  0  0  0  0  0
   10.5540   37.9910   10.7970 C   0  0  0  0  0  0  0  0  0  0  0  0
    9.4730   38.1020    9.7130 C   0  0  0  0  0  0  0  0  0  0  0  0
    9.1890   39.3470    9.0960 C   0  0  0  0  0  0  0  0  0  0  0  0
    8.2010   39.4540    8.1030 C   0  0  0  0  0  0  0  0  0  0  0  0
    7.4740   38.3180    7.7100 C   0  0  0  0  0  0  0  0  0  0  0  0
    7.7360   37.0720    8.3090 C   0  0  0  0  0  0  0  0  0  0  0  0
    6.9970   35.9420    7.9020 C   0  0  0  0  0  0  0  0  0  0  0  0
    7.2410   34.6860    8.4870 C   0  0  0  0  0  0  0  0  0  0  0  0
    8.2270   34.5580    9.4810 C   0  0  0  0  0  0  0  0  0  0  0  0
    8.9680   35.6830    9.8930 C   0  0  0  0  0  0  0  0  0  0  0  0
    8.7350   36.9550    9.3140 C   0  0  0  0  0  0  0  0  0  0  0  0
   12.8120   39.0410   10.5710 C   0  0  0  0  0  0  0  0  0  0  0  0
   13.6060   37.9500   10.1610 C   0  0  0  0  0  0  0  0  0  0  0  0
   14.9740   38.1380    9.9000 C   0  0  0  0  0  0  0  0  0  0  0  0
   15.5420   39.4150   10.0470 C   0  0  0  0  0  0  0  0  0  0  0  0
   16.8590   39.6040    9.7930 F   0  0  0  0  0  0  0  0  0  0  0  0
   14.7430   40.4990   10.4610 C   0  0  0  0  0  0  0  0  0  0  0  0
   13.3640   40.3390   10.7380 C   0  0  0  0  0  0  0  0  0  0  0  0
   15.5917   42.6122   14.6260 H   0  0  0  0  0  0  0  0  0  0  0  0
   14.7092   41.5605   13.4676 H   0  0  0  0  0  0  0  0  0  0  0  0
   16.5053   41.5873   13.4676 H   0  0  0  0  0  0  0  0  0  0  0  0
   16.4561   43.9808   12.7440 H   0  0  0  0  0  0  0  0  0  0  0  0
   15.6144   42.9171   11.5692 H   0  0  0  0  0  0  0  0  0  0  0  0
   11.5757   42.3476   14.8081 H   0  0  0  0  0  0  0  0  0  0  0  0
   10.4421   42.7095   13.4625 H   0  0  0  0  0  0  0  0  0  0  0  0
   11.3752   41.1746   13.4625 H   0  0  0  0  0  0  0  0  0  0  0  0
   11.7410   43.2703   11.0636 H   0  0  0  0  0  0  0  0  0  0  0  0
   13.5289   42.9670   11.1843 H   0  0  0  0  0  0  0  0  0  0  0  0
   11.1554   37.0937   10.5893 H   0  0  0  0  0  0  0  0  0  0  0  0
   10.0228   37.9458   11.7592 H   0  0  0  0  0  0  0  0  0  0  0  0
    9.7509   40.2426    9.3996 H   0  0  0  0  0  0  0  0  0  0  0  0
    7.9966   40.4274    7.6332 H   0  0  0  0  0  0  0  0  0  0  0  0
    6.6994   38.4026    6.9335 H   0  0  0  0  0  0  0  0  0  0  0  0
    6.2263   36.0431    7.1236 H   0  0  0  0  0  0  0  0  0  0  0  0
    6.6621   33.8068    8.1677 H   0  0  0  0  0  0  0  0  0  0  0  0
    8.4204   33.5765    9.9384 H   0  0  0  0  0  0  0  0  0  0  0  0
    9.7360   35.5727   10.6728 H   0  0  0  0  0  0  0  0  0  0  0  0
   13.1552   36.9533   10.0457 H   0  0  0  0  0  0  0  0  0  0  0  0
   15.5975   37.2894    9.5820 H   0  0  0  0  0  0  0  0  0  0  0  0
   15.2014   41.4928   10.5716 H   0  0  0  0  0  0  0  0  0  0  0  0
  1  2  1  0
  2  3  1  0
  3  4  1  0
  4  5  2  0
  4  6  1  0
  6  7  1  0
  6  8  1  0
  8  9  1  0
  9 10  2  0
 10 11  1  0
 11 12  2  0
 11 13  1  0
 10 14  1  0
 14 15  1  0
 15 16  1  0
 16 17  2  0
 17 18  1  0
 18 19  2  0
 19 20  1  0
 20 21  2  0
 21 22  1  0
 22 23  2  0
 23 24  1  0
 24 25  2  0
 14 26  1  0
 26 27  2  0
 27 28  1  0
 28 29  2  0
 29 30  1  0
 29 31  1  0
 31 32  2  0
 32  9  1  0
 25 16  1  0
 32 26  1  0
 25 20  1  0
  1 33  1  0
  1 34  1  0
  1 35  1  0
  2 36  1  0
  2 37  1  0
  7 38  1  0
  7 39  1  0
  7 40  1  0
  8 41  1  0
  8 42  1  0
 15 43  1  0
 15 44  1  0
 17 45  1  0
 18 46  1  0
 19 47  1  0
 21 48  1  0
 22 49  1  0
 23 50  1  0
 24 51  1  0
 27 52  1  0
 28 53  1  0
 31 54  1  0
M  CHG  1  13  -1
M  END
>  <meeko>  (254) 
{"free_energy": -5.36, "intermolecular_energy": -7.74, "internal_energy": -1.48, "cluster_size": 23, "cluster_id": 42, "rank_in_cluster": 11}

$$$$

     RDKit          3D

 54 57  0  0  0  0  0  0  0  0999 V2000
   12.4490   43.7770   17.2030 C   0  0  0  0  0  0  0  0  0  0  0  0
   11.7830   42.4080   17.3570 C   0  0  0  0  0  0  0  0  0  0  0  0
   11.1810   42.0400   16.1260 O   0  0  0  0  0  0  0  0  0  0  0  0
   10.0170   41.3570   16.1190 C   0  0  0  0  0  0  0  0  0  0  0  0
    8.9590   41.8250   15.6960 O   0  0  0  0  0  0  0  0  0  0  0  0
   10.1980   40.0720   16.6470 N   0  0  0  0  0  0  0  0  0  0  0  0
    9.2630   39.4860   17.6140 C   0  0  0  0  0  0  0  0  0  0  0  0
   11.3600   39.2530   16.2760 C   0  0  0  0  0  0  0  0  0  0  0  0
   11.0690   38.3450   15.1050 C   0  0  0  0  0  0  0  0  0  0  0  0
   11.4330   38.4970   13.7780 C   0  0  0  0  0  0  0  0  0  0  0  0
   12.2410   39.5760   13.1290 C   0  0  0  0  0  0  0  0  0  0  0  0
   11.8220   40.7520   13.1770 O   0  0  0  0  0  0  0  0  0  0  0  0
   13.3060   39.3030   12.5330 O   0  0  0  0  0  1  0  0  0  0  0  0
   10.8850   37.4330   13.0310 N   0  0  0  0  0  0  0  0  0  0  0  0
   11.0110   37.1690   11.5950 C   0  0  0  0  0  0  0  0  0  0  0  0
   10.0110   37.9250   10.7100 C   0  0  0  0  0  0  0  0  0  0  0  0
    9.9540   39.3410   10.7260 C   0  0  0  0  0  0  0  0  0  0  0  0
    9.0400   40.0390    9.9180 C   0  0  0  0  0  0  0  0  0  0  0  0
    8.1630   39.3320    9.0790 C   0  0  0  0  0  0  0  0  0  0  0  0
    8.1990   37.9250    9.0460 C   0  0  0  0  0  0  0  0  0  0  0  0
    7.3110   37.2320    8.1980 C   0  0  0  0  0  0  0  0  0  0  0  0
    7.3280   35.8260    8.1500 C   0  0  0  0  0  0  0  0  0  0  0  0
    8.2360   35.1110    8.9510 C   0  0  0  0  0  0  0  0  0  0  0  0
    9.1250   35.7970    9.8000 C   0  0  0  0  0  0  0  0  0  0  0  0
    9.1210   37.2120    9.8610 C   0  0  0  0  0  0  0  0  0  0  0  0
   10.1700   36.5980   13.8810 C   0  0  0  0  0  0  0  0  0  0  0  0
    9.4310   35.4220   13.6390 C   0  0  0  0  0  0  0  0  0  0  0  0
    8.8000   34.7590   14.7050 C   0  0  0  0  0  0  0  0  0  0  0  0
    8.9120   35.2740   16.0090 C   0  0  0  0  0  0  0  0  0  0  0  0
    8.3090   34.6370   17.0410 F   0  0  0  0  0  0  0  0  0  0  0  0
    9.6480   36.4510   16.2410 C   0  0  0  0  0  0  0  0  0  0  0  0
   10.2890   37.1450   15.1860 C   0  0  0  0  0  0  0  0  0  0  0  0
   12.6542   44.1989   18.1979 H   0  0  0  0  0  0  0  0  0  0  0  0
   13.3934   43.6652   16.6502 H   0  0  0  0  0  0  0  0  0  0  0  0
   11.7781   44.4510   16.6502 H   0  0  0  0  0  0  0  0  0  0  0  0
   12.5402   41.6598   17.6343 H   0  0  0  0  0  0  0  0  0  0  0  0
   11.0153   42.4573   18.1432 H   0  0  0  0  0  0  0  0  0  0  0  0
    9.6085   39.7025   18.6356 H   0  0  0  0  0  0  0  0  0  0  0  0
    8.2628   39.9191   17.4657 H   0  0  0  0  0  0  0  0  0  0  0  0
    9.2167   38.3970   17.4657 H   0  0  0  0  0  0  0  0  0  0  0  0
   12.1924   39.9203   16.0082 H   0  0  0  0  0  0  0  0  0  0  0  0
   11.6152   38.6197   17.1384 H   0  0  0  0  0  0  0  0  0  0  0  0
   12.0268   37.4533   11.2829 H   0  0  0  0  0  0  0  0  0  0  0  0
   10.7975   36.0987   11.4577 H   0  0  0  0  0  0  0  0  0  0  0  0
   10.6360   39.9027   11.3813 H   0  0  0  0  0  0  0  0  0  0  0  0
    9.0115   41.1384    9.9427 H   0  0  0  0  0  0  0  0  0  0  0  0
    7.4473   39.8782    8.4470 H   0  0  0  0  0  0  0  0  0  0  0  0
    6.6020   37.7929    7.5714 H   0  0  0  0  0  0  0  0  0  0  0  0
    6.6334   35.2879    7.4882 H   0  0  0  0  0  0  0  0  0  0  0  0
    8.2517   34.0117    8.9141 H   0  0  0  0  0  0  0  0  0  0  0  0
    9.8306   35.2277   10.4229 H   0  0  0  0  0  0  0  0  0  0  0  0
    9.3485   35.0240   12.6168 H   0  0  0  0  0  0  0  0  0  0  0  0
    8.2213   33.8418   14.5207 H   0  0  0  0  0  0  0  0  0  0  0  0
    9.7272   36.8412   17.2664 H   0  0  0  0  0  0  0  0  0  0  0  0
  1  2  1  0
  2  3  1  0
  3  4  1  0
  4  5  2  0
  4  6  1  0
  6  7  1  0
  6  8  1  0
  8  9  1  0
  9 10  2  0
 10 11  1  0
 11 12  2  0
 11 13  1  0
 10 14  1  0
 14 15  1  0
 15 16  1  0
 16 17  2  0
 17 18  1  0
 18 19  2  0
 19 20  1  0
 20 21  2  0
 21 22  1  0
 22 23  2  0
 23 24  1  0
 24 25  2  0
 14 26  1  0
 26 27  2  0
 27 28  1  0
 28 29  2  0
 29 30  1  0
 29 31  1  0
 31 32  2  0
 32  9  1  0
 25 16  1  0
 32 26  1  0
 25 20  1  0
  1 33  1  0
  1 34  1  0
  1 35  1  0
  2 36  1  0
  2 37  1  0
  7 38  1  0
  7 39  1  0
  7 40  1  0
  8 41  1  0
  8 42  1  0
 15 43  1  0
 15 44  1  0
 17 45  1  0
 18 46  1  0
 19 47  1  0
 21 48  1  0
 22 49  1  0
 23 50  1  0
 24 51  1  0
 27 52  1  0
 28 53  1  0
 31 54  1  0
M  CHG  1  13  -1
M  END
>  <meeko>  (255) 
{"free_energy": -6.02, "intermolecular_energy": -8.41, "internal_energy": -1.78, "cluster_size": 326, "cluster_id": 11, "rank_in_cluster": 131}

$$$$

     RDKit          3D

 54 57  0  0  0  0  0  0  0  0999 V2000
   11.8180   44.2240   12.4030 C   0  0  0  0  0  0  0  0  0  0  0  0
   13.0570   43.3290   12.3190 C   0  0  0  0  0  0  0  0  0  0  0  0
   13.6270   43.1980   13.6110 O   0  0  0  0  0  0  0  0  0  0  0  0
   12.8580   42.8190   14.6540 C   0  0  0  0  0  0  0  0  0  0  0  0
   11.8870   43.4660   15.0510 O   0  0  0  0  0  0  0  0  0  0  0  0
   13.3190   41.6100   15.1920 N   0  0  0  0  0  0  0  0  0  0  0  0
   14.4600   41.5510   16.1120 C   0  0  0  0  0  0  0  0  0  0  0  0
   12.6950   40.3300   14.8330 C   0  0  0  0  0  0  0  0  0  0  0  0
   12.0960   40.3540   13.4470 C   0  0  0  0  0  0  0  0  0  0  0  0
   10.8390   40.7790   13.0530 C   0  0  0  0  0  0  0  0  0  0  0  0
    9.7310   41.3660   13.8700 C   0  0  0  0  0  0  0  0  0  0  0  0
    9.5950   40.9900   15.0540 O   0  0  0  0  0  0  0  0  0  0  0  0
    8.9460   42.2010   13.3710 O   0  0  0  0  0  1  0  0  0  0  0  0
   10.6970   40.5560   11.6670 N   0  0  0  0  0  0  0  0  0  0  0  0
    9.5470   40.8550   10.8090 C   0  0  0  0  0  0  0  0  0  0  0  0
    8.9650   39.6460   10.0650 C   0  0  0  0  0  0  0  0  0  0  0  0
    8.5040   39.7690    8.7300 C   0  0  0  0  0  0  0  0  0  0  0  0
    7.9710   38.6640    8.0440 C   0  0  0  0  0  0  0  0  0  0  0  0
    7.8860   37.4160    8.6810 C   0  0  0  0  0  0  0  0  0  0  0  0
    8.3350   37.2690   10.0070 C   0  0  0  0  0  0  0  0  0  0  0  0
    8.2420   36.0080   10.6320 C   0  0  0  0  0  0  0  0  0  0  0  0
    8.6850   35.8380   11.9560 C   0  0  0  0  0  0  0  0  0  0  0  0
    9.2230   36.9310   12.6590 C   0  0  0  0  0  0  0  0  0  0  0  0
    9.3180   38.1930   12.0410 C   0  0  0  0  0  0  0  0  0  0  0  0
    8.8770   38.3820   10.7080 C   0  0  0  0  0  0  0  0  0  0  0  0
   11.8640   39.9860   11.1730 C   0  0  0  0  0  0  0  0  0  0  0  0
   12.2280   39.5620    9.8790 C   0  0  0  0  0  0  0  0  0  0  0  0
   13.5030   39.0180    9.6520 C   0  0  0  0  0  0  0  0  0  0  0  0
   14.4100   38.9000   10.7200 C   0  0  0  0  0  0  0  0  0  0  0  0
   15.6420   38.3800   10.5080 F   0  0  0  0  0  0  0  0  0  0  0  0
   14.0380   39.3220   12.0110 C   0  0  0  0  0  0  0  0  0  0  0  0
   12.7580   39.8690   12.2710 C   0  0  0  0  0  0  0  0  0  0  0  0
   11.5674   44.4051   13.4586 H   0  0  0  0  0  0  0  0  0  0  0  0
   12.0241   45.1831   11.9054 H   0  0  0  0  0  0  0  0  0  0  0  0
   10.9722   43.7270   11.9054 H   0  0  0  0  0  0  0  0  0  0  0  0
   12.7690   42.3367   11.9418 H   0  0  0  0  0  0  0  0  0  0  0  0
   13.7918   43.7789   11.6351 H   0  0  0  0  0  0  0  0  0  0  0  0
   14.0956   41.5698   17.1497 H   0  0  0  0  0  0  0  0  0  0  0  0
   15.0236   40.6225   15.9381 H   0  0  0  0  0  0  0  0  0  0  0  0
   15.1164   42.4164   15.9381 H   0  0  0  0  0  0  0  0  0  0  0  0
   13.4591   39.5398   14.8746 H   0  0  0  0  0  0  0  0  0  0  0  0
   11.8813   40.1396   15.5483 H   0  0  0  0  0  0  0  0  0  0  0  0
    8.7532   41.2835   11.4385 H   0  0  0  0  0  0  0  0  0  0  0  0
    9.9107   41.5476   10.0356 H   0  0  0  0  0  0  0  0  0  0  0  0
    8.5643   40.7436    8.2235 H   0  0  0  0  0  0  0  0  0  0  0  0
    7.6203   38.7772    7.0076 H   0  0  0  0  0  0  0  0  0  0  0  0
    7.4681   36.5521    8.1434 H   0  0  0  0  0  0  0  0  0  0  0  0
    7.8211   35.1537   10.0815 H   0  0  0  0  0  0  0  0  0  0  0  0
    8.6109   34.8531   12.4403 H   0  0  0  0  0  0  0  0  0  0  0  0
    9.5705   36.7998   13.6944 H   0  0  0  0  0  0  0  0  0  0  0  0
    9.7394   39.0416   12.5997 H   0  0  0  0  0  0  0  0  0  0  0  0
   11.5141   39.6570    9.0475 H   0  0  0  0  0  0  0  0  0  0  0  0
   13.7906   38.6859    8.6435 H   0  0  0  0  0  0  0  0  0  0  0  0
   14.7584   39.2245   12.8365 H   0  0  0  0  0  0  0  0  0  0  0  0
  1  2  1  0
  2  3  1  0
  3  4  1  0
  4  5  2  0
  4  6  1  0
  6  7  1  0
  6  8  1  0
  8  9  1  0
  9 10  2  0
 10 11  1  0
 11 12  2  0
 11 13  1  0
 10 14  1  0
 14 15  1  0
 15 16  1  0
 16 17  2  0
 17 18  1  0
 18 19  2  0
 19 20  1  0
 20 21  2  0
 21 22  1  0
 22 23  2  0
 23 24  1  0
 24 25  2  0
 14 26  1  0
 26 27  2  0
 27 28  1  0
 28 29  2  0
 29 30  1  0
 29 31  1  0
 31 32  2  0
 32  9  1  0
 25 16  1  0
 32 26  1  0
 25 20  1  0
  1 33  1  0
  1 34  1  0
  1 35  1  0
  2 36  1  0
  2 37  1  0
  7 38  1  0
  7 39  1  0
  7 40  1  0
  8 41  1  0
  8 42  1  0
 15 43  1  0
 15 44  1  0
 17 45  1  0
 18 46  1  0
 19 47  1  0
 21 48  1  0
 22 49  1  0
 23 50  1  0
 24 51  1  0
 27 52  1  0
 28 53  1  0
 31 54  1  0
M  CHG  1  13  -1
M  END
>  <meeko>  (256) 
{"free_energy": -4.69, "intermolecular_energy": -7.08, "internal_energy": -2.38, "cluster_size": 210, "cluster_id": 15, "rank_in_cluster": 207}

$$$$

     RDKit          3D

 54 57  0  0  0  0  0  0  0  0999 V2000
    9.3050   41.7850   11.4870 C   0  0  0  0  0  0  0  0  0  0  0  0
   10.6470   42.1630   12.1190 C   0  0  0  0  0  0  0  0  0  0  0  0
   11.4600   41.0040   12.2170 O   0  0  0  0  0  0  0  0  0  0  0  0
   12.6500   40.9570   11.5810 C   0  0  0  0  0  0  0  0  0  0  0  0
   12.9470   41.7000   10.6430 O   0  0  0  0  0  0  0  0  0  0  0  0
   13.4680   39.9680   12.1410 N   0  0  0  0  0  0  0  0  0  0  0  0
   14.7570   39.5940   11.5500 C   0  0  0  0  0  0  0  0  0  0  0  0
   13.0570   39.2310   13.3440 C   0  0  0  0  0  0  0  0  0  0  0  0
   11.8490   38.3590   13.0950 C   0  0  0  0  0  0  0  0  0  0  0  0
   11.3840   37.8430   11.8980 C   0  0  0  0  0  0  0  0  0  0  0  0
   11.9550   37.9660   10.5210 C   0  0  0  0  0  0  0  0  0  0  0  0
   11.3550   38.6740    9.6840 O   0  0  0  0  0  0  0  0  0  0  0  0
   13.0010   37.3560   10.2080 O   0  0  0  0  0  1  0  0  0  0  0  0
   10.1860   37.1390   12.1420 N   0  0  0  0  0  0  0  0  0  0  0  0
    9.3420   36.4180   11.1850 C   0  0  0  0  0  0  0  0  0  0  0  0
    8.7220   37.2920   10.0860 C   0  0  0  0  0  0  0  0  0  0  0  0
    8.6350   38.6980   10.2400 C   0  0  0  0  0  0  0  0  0  0  0  0
    8.0680   39.5020    9.2360 C   0  0  0  0  0  0  0  0  0  0  0  0
    7.5760   38.9150    8.0600 C   0  0  0  0  0  0  0  0  0  0  0  0
    7.6490   37.5200    7.8840 C   0  0  0  0  0  0  0  0  0  0  0  0
    7.1500   36.9470    6.6960 C   0  0  0  0  0  0  0  0  0  0  0  0
    7.2120   35.5560    6.4990 C   0  0  0  0  0  0  0  0  0  0  0  0
    7.7770   34.7340    7.4910 C   0  0  0  0  0  0  0  0  0  0  0  0
    8.2770   35.3000    8.6800 C   0  0  0  0  0  0  0  0  0  0  0  0
    8.2220   36.6990    8.8940 C   0  0  0  0  0  0  0  0  0  0  0  0
    9.8830   37.2050   13.4960 C   0  0  0  0  0  0  0  0  0  0  0  0
    8.8050   36.6890   14.2450 C   0  0  0  0  0  0  0  0  0  0  0  0
    8.7500   36.9020   15.6320 C   0  0  0  0  0  0  0  0  0  0  0  0
    9.7730   37.6270   16.2670 C   0  0  0  0  0  0  0  0  0  0  0  0
    9.7280   37.8320   17.6050 F   0  0  0  0  0  0  0  0  0  0  0  0
   10.8450   38.1430   15.5120 C   0  0  0  0  0  0  0  0  0  0  0  0
   10.9240   37.9510   14.1110 C   0  0  0  0  0  0  0  0  0  0  0  0
    8.5714   41.5784   12.2802 H   0  0  0  0  0  0  0  0  0  0  0  0
    8.9461   42.6170   10.8633 H   0  0  0  0  0  0  0  0  0  0  0  0
    9.4331   40.8880   10.8633 H   0  0  0  0  0  0  0  0  0  0  0  0
   11.1505   42.9135   11.4919 H   0  0  0  0  0  0  0  0  0  0  0  0
   10.4780   42.5816   13.1221 H   0  0  0  0  0  0  0  0  0  0  0  0
   15.4807   39.3840   12.3514 H   0  0  0  0  0  0  0  0  0  0  0  0
   14.6283   38.6962   10.9277 H   0  0  0  0  0  0  0  0  0  0  0  0
   15.1289   40.4213   10.9277 H   0  0  0  0  0  0  0  0  0  0  0  0
   13.8919   38.5942   13.6716 H   0  0  0  0  0  0  0  0  0  0  0  0
   12.7881   39.9676   14.1155 H   0  0  0  0  0  0  0  0  0  0  0  0
    9.9572   35.6451   10.7010 H   0  0  0  0  0  0  0  0  0  0  0  0
    8.5018   36.0058   11.7630 H   0  0  0  0  0  0  0  0  0  0  0  0
    9.0168   39.1672   11.1588 H   0  0  0  0  0  0  0  0  0  0  0  0
    8.0099   40.5920    9.3722 H   0  0  0  0  0  0  0  0  0  0  0  0
    7.1329   39.5454    7.2750 H   0  0  0  0  0  0  0  0  0  0  0  0
    6.7104   37.5909    5.9201 H   0  0  0  0  0  0  0  0  0  0  0  0
    6.8199   35.1121    5.5721 H   0  0  0  0  0  0  0  0  0  0  0  0
    7.8285   33.6460    7.3377 H   0  0  0  0  0  0  0  0  0  0  0  0
    8.7149   34.6485    9.4506 H   0  0  0  0  0  0  0  0  0  0  0  0
    8.0082   36.1203   13.7433 H   0  0  0  0  0  0  0  0  0  0  0  0
    7.9097   36.5030   16.2191 H   0  0  0  0  0  0  0  0  0  0  0  0
   11.6388   38.7080   16.0225 H   0  0  0  0  0  0  0  0  0  0  0  0
  1  2  1  0
  2  3  1  0
  3  4  1  0
  4  5  2  0
  4  6  1  0
  6  7  1  0
  6  8  1  0
  8  9  1  0
  9 10  2  0
 10 11  1  0
 11 12  2  0
 11 13  1  0
 10 14  1  0
 14 15  1  0
 15 16  1  0
 16 17  2  0
 17 18  1  0
 18 19  2  0
 19 20  1  0
 20 21  2  0
 21 22  1  0
 22 23  2  0
 23 24  1  0
 24 25  2  0
 14 26  1  0
 26 27  2  0
 27 28  1  0
 28 29  2  0
 29 30  1  0
 29 31  1  0
 31 32  2  0
 32  9  1  0
 25 16  1  0
 32 26  1  0
 25 20  1  0
  1 33  1  0
  1 34  1  0
  1 35  1  0
  2 36  1  0
  2 37  1  0
  7 38  1  0
  7 39  1  0
  7 40  1  0
  8 41  1  0
  8 42  1  0
 15 43  1  0
 15 44  1  0
 17 45  1  0
 18 46  1  0
 19 47  1  0
 21 48  1  0
 22 49  1  0
 23 50  1  0
 24 51  1  0
 27 52  1  0
 28 53  1  0
 31 54  1  0
M  CHG  1  13  -1
M  END
>  <meeko>  (257) 
{"free_energy": -6.4, "intermolecular_energy": -8.79, "internal_energy": -2.02, "cluster_size": 292, "cluster_id": 10, "rank_in_cluster": 92}

$$$$

     RDKit          3D

 54 57  0  0  0  0  0  0  0  0999 V2000
    8.6060   39.8970    8.7850 C   0  0  0  0  0  0  0  0  0  0  0  0
    8.0050   39.5150   10.1400 C   0  0  0  0  0  0  0  0  0  0  0  0
    8.7170   40.1800   11.1710 O   0  0  0  0  0  0  0  0  0  0  0  0
    8.4640   41.4790   11.4380 C   0  0  0  0  0  0  0  0  0  0  0  0
    7.4110   42.0420   11.1330 O   0  0  0  0  0  0  0  0  0  0  0  0
    9.5500   42.0650   12.1020 N   0  0  0  0  0  0  0  0  0  0  0  0
    9.5830   43.4930   12.4360 C   0  0  0  0  0  0  0  0  0  0  0  0
   10.7320   41.2750   12.4730 C   0  0  0  0  0  0  0  0  0  0  0  0
   10.3620   39.9670   13.1310 C   0  0  0  0  0  0  0  0  0  0  0  0
    9.9870   39.7310   14.4420 C   0  0  0  0  0  0  0  0  0  0  0  0
    9.8050   40.6970   15.5700 C   0  0  0  0  0  0  0  0  0  0  0  0
   10.2190   41.8680   15.4300 O   0  0  0  0  0  0  0  0  0  0  0  0
    9.2660   40.3340   16.6380 O   0  0  0  0  0  1  0  0  0  0  0  0
    9.7980   38.3440   14.6180 N   0  0  0  0  0  0  0  0  0  0  0  0
    9.3900   37.6280   15.8300 C   0  0  0  0  0  0  0  0  0  0  0  0
   10.0210   36.2400   16.0030 C   0  0  0  0  0  0  0  0  0  0  0  0
    9.2430   35.0640   15.8530 C   0  0  0  0  0  0  0  0  0  0  0  0
    9.8180   33.7910   16.0100 C   0  0  0  0  0  0  0  0  0  0  0  0
   11.1810   33.6690   16.3220 C   0  0  0  0  0  0  0  0  0  0  0  0
   11.9750   34.8220   16.4770 C   0  0  0  0  0  0  0  0  0  0  0  0
   13.3430   34.6810   16.7900 C   0  0  0  0  0  0  0  0  0  0  0  0
   14.1540   35.8180   16.9500 C   0  0  0  0  0  0  0  0  0  0  0  0
   13.5990   37.1000   16.7960 C   0  0  0  0  0  0  0  0  0  0  0  0
   12.2340   37.2480   16.4840 C   0  0  0  0  0  0  0  0  0  0  0  0
   11.4020   36.1130   16.3190 C   0  0  0  0  0  0  0  0  0  0  0  0
   10.0540   37.6910   13.4200 C   0  0  0  0  0  0  0  0  0  0  0  0
   10.0250   36.3260   13.0680 C   0  0  0  0  0  0  0  0  0  0  0  0
   10.3250   35.9340   11.7530 C   0  0  0  0  0  0  0  0  0  0  0  0
   10.6520   36.9080   10.7940 C   0  0  0  0  0  0  0  0  0  0  0  0
   10.9380   36.5370    9.5230 F   0  0  0  0  0  0  0  0  0  0  0  0
   10.6830   38.2690   11.1530 C   0  0  0  0  0  0  0  0  0  0  0  0
   10.3920   38.6940   12.4720 C   0  0  0  0  0  0  0  0  0  0  0  0
    9.5247   40.4810    8.9429 H   0  0  0  0  0  0  0  0  0  0  0  0
    8.8444   38.9843    8.2192 H   0  0  0  0  0  0  0  0  0  0  0  0
    7.8808   40.5003    8.2192 H   0  0  0  0  0  0  0  0  0  0  0  0
    6.9472   39.8152   10.1709 H   0  0  0  0  0  0  0  0  0  0  0  0
    8.0786   38.4268   10.2830 H   0  0  0  0  0  0  0  0  0  0  0  0
    9.5858   43.6139   13.5293 H   0  0  0  0  0  0  0  0  0  0  0  0
   10.4919   43.9472   12.0146 H   0  0  0  0  0  0  0  0  0  0  0  0
    8.6961   43.9887   12.0146 H   0  0  0  0  0  0  0  0  0  0  0  0
   11.3147   41.0620   11.5647 H   0  0  0  0  0  0  0  0  0  0  0  0
   11.3168   41.8625   13.1960 H   0  0  0  0  0  0  0  0  0  0  0  0
    9.6691   38.2412   16.6995 H   0  0  0  0  0  0  0  0  0  0  0  0
    8.3056   37.4654   15.7423 H   0  0  0  0  0  0  0  0  0  0  0  0
    8.1735   35.1492   15.6101 H   0  0  0  0  0  0  0  0  0  0  0  0
    9.1993   32.8897   15.8882 H   0  0  0  0  0  0  0  0  0  0  0  0
   11.6294   32.6722   16.4456 H   0  0  0  0  0  0  0  0  0  0  0  0
   13.7770   33.6773   16.9094 H   0  0  0  0  0  0  0  0  0  0  0  0
   15.2203   35.7046   17.1951 H   0  0  0  0  0  0  0  0  0  0  0  0
   14.2329   37.9904   16.9196 H   0  0  0  0  0  0  0  0  0  0  0  0
   11.8089   38.2558   16.3671 H   0  0  0  0  0  0  0  0  0  0  0  0
    9.7676   35.5684   13.8229 H   0  0  0  0  0  0  0  0  0  0  0  0
   10.3041   34.8699   11.4751 H   0  0  0  0  0  0  0  0  0  0  0  0
   10.9393   39.0198   10.3910 H   0  0  0  0  0  0  0  0  0  0  0  0
  1  2  1  0
  2  3  1  0
  3  4  1  0
  4  5  2  0
  4  6  1  0
  6  7  1  0
  6  8  1  0
  8  9  1  0
  9 10  2  0
 10 11  1  0
 11 12  2  0
 11 13  1  0
 10 14  1  0
 14 15  1  0
 15 16  1  0
 16 17  2  0
 17 18  1  0
 18 19  2  0
 19 20  1  0
 20 21  2  0
 21 22  1  0
 22 23  2  0
 23 24  1  0
 24 25  2  0
 14 26  1  0
 26 27  2  0
 27 28  1  0
 28 29  2  0
 29 30  1  0
 29 31  1  0
 31 32  2  0
 32  9  1  0
 25 16  1  0
 32 26  1  0
 25 20  1  0
  1 33  1  0
  1 34  1  0
  1 35  1  0
  2 36  1  0
  2 37  1  0
  7 38  1  0
  7 39  1  0
  7 40  1  0
  8 41  1  0
  8 42  1  0
 15 43  1  0
 15 44  1  0
 17 45  1  0
 18 46  1  0
 19 47  1  0
 21 48  1  0
 22 49  1  0
 23 50  1  0
 24 51  1  0
 27 52  1  0
 28 53  1  0
 31 54  1  0
M  CHG  1  13  -1
M  END
>  <meeko>  (258) 
{"free_energy": -5.27, "intermolecular_energy": -7.66, "internal_energy": -1.38, "cluster_size": 121, "cluster_id": 34, "rank_in_cluster": 65}

$$$$

     RDKit          3D

 54 57  0  0  0  0  0  0  0  0999 V2000
   12.4910   36.1430   16.7040 C   0  0  0  0  0  0  0  0  0  0  0  0
   13.5540   37.0910   17.2660 C   0  0  0  0  0  0  0  0  0  0  0  0
   13.2010   38.4280   16.9500 O   0  0  0  0  0  0  0  0  0  0  0  0
   12.1370   39.0070   17.5460 C   0  0  0  0  0  0  0  0  0  0  0  0
   12.0020   39.0780   18.7690 O   0  0  0  0  0  0  0  0  0  0  0  0
   11.2450   39.5030   16.5870 N   0  0  0  0  0  0  0  0  0  0  0  0
   11.6210   40.5660   15.6480 C   0  0  0  0  0  0  0  0  0  0  0  0
    9.8690   38.9980   16.4930 C   0  0  0  0  0  0  0  0  0  0  0  0
    9.7350   37.8880   15.4780 C   0  0  0  0  0  0  0  0  0  0  0  0
    9.9620   37.9290   14.1130 C   0  0  0  0  0  0  0  0  0  0  0  0
   10.4340   39.0630   13.2590 C   0  0  0  0  0  0  0  0  0  0  0  0
    9.5860   39.8400   12.7690 O   0  0  0  0  0  0  0  0  0  0  0  0
   11.6520   39.2190   13.0240 O   0  0  0  0  0  1  0  0  0  0  0  0
    9.6460   36.6690   13.5610 N   0  0  0  0  0  0  0  0  0  0  0  0
    9.7380   36.2390   12.1640 C   0  0  0  0  0  0  0  0  0  0  0  0
    9.6920   37.3750   11.1340 C   0  0  0  0  0  0  0  0  0  0  0  0
    8.4570   37.9400   10.7300 C   0  0  0  0  0  0  0  0  0  0  0  0
    8.4110   38.9820    9.7870 C   0  0  0  0  0  0  0  0  0  0  0  0
    9.6000   39.4770    9.2290 C   0  0  0  0  0  0  0  0  0  0  0  0
   10.8400   38.9320    9.6130 C   0  0  0  0  0  0  0  0  0  0  0  0
   12.0240   39.4410    9.0420 C   0  0  0  0  0  0  0  0  0  0  0  0
   13.2740   38.9120    9.4110 C   0  0  0  0  0  0  0  0  0  0  0  0
   13.3410   37.8700   10.3530 C   0  0  0  0  0  0  0  0  0  0  0  0
   12.1620   37.3560   10.9260 C   0  0  0  0  0  0  0  0  0  0  0  0
   10.8950   37.8780   10.5670 C   0  0  0  0  0  0  0  0  0  0  0  0
    9.2160   35.8210   14.5740 C   0  0  0  0  0  0  0  0  0  0  0  0
    8.7760   34.4810   14.5540 C   0  0  0  0  0  0  0  0  0  0  0  0
    8.4010   33.8490   15.7510 C   0  0  0  0  0  0  0  0  0  0  0  0
    8.4670   34.5580   16.9630 C   0  0  0  0  0  0  0  0  0  0  0  0
    8.1100   33.9530   18.1210 F   0  0  0  0  0  0  0  0  0  0  0  0
    8.9040   35.8960   16.9750 C   0  0  0  0  0  0  0  0  0  0  0  0
    9.2820   36.5620   15.7840 C   0  0  0  0  0  0  0  0  0  0  0  0
   11.9524   35.6626   17.5341 H   0  0  0  0  0  0  0  0  0  0  0  0
   11.7807   36.7130   16.0871 H   0  0  0  0  0  0  0  0  0  0  0  0
   12.9763   35.3724   16.0871 H   0  0  0  0  0  0  0  0  0  0  0  0
   13.6108   36.9739   18.3583 H   0  0  0  0  0  0  0  0  0  0  0  0
   14.5325   36.8528   16.8235 H   0  0  0  0  0  0  0  0  0  0  0  0
   11.9363   41.4573   16.2103 H   0  0  0  0  0  0  0  0  0  0  0  0
   12.4510   40.2193   15.0149 H   0  0  0  0  0  0  0  0  0  0  0  0
   10.7576   40.8183   15.0149 H   0  0  0  0  0  0  0  0  0  0  0  0
    9.5644   38.6153   17.4783 H   0  0  0  0  0  0  0  0  0  0  0  0
    9.2262   39.8299   16.1694 H   0  0  0  0  0  0  0  0  0  0  0  0
   10.6874   35.6987   12.0346 H   0  0  0  0  0  0  0  0  0  0  0  0
    8.8523   35.6147   11.9745 H   0  0  0  0  0  0  0  0  0  0  0  0
    7.5198   37.5576   11.1607 H   0  0  0  0  0  0  0  0  0  0  0  0
    7.4430   39.4093    9.4865 H   0  0  0  0  0  0  0  0  0  0  0  0
    9.5629   40.2917    8.4908 H   0  0  0  0  0  0  0  0  0  0  0  0
   11.9702   40.2555    8.3046 H   0  0  0  0  0  0  0  0  0  0  0  0
   14.1961   39.3121    8.9642 H   0  0  0  0  0  0  0  0  0  0  0  0
   14.3176   37.4552   10.6431 H   0  0  0  0  0  0  0  0  0  0  0  0
   12.2255   36.5398   11.6607 H   0  0  0  0  0  0  0  0  0  0  0  0
    8.7266   33.9317   13.6023 H   0  0  0  0  0  0  0  0  0  0  0  0
    8.0573   32.8041   15.7401 H   0  0  0  0  0  0  0  0  0  0  0  0
    8.9530   36.4367   17.9317 H   0  0  0  0  0  0  0  0  0  0  0  0
  1  2  1  0
  2  3  1  0
  3  4  1  0
  4  5  2  0
  4  6  1  0
  6  7  1  0
  6  8  1  0
  8  9  1  0
  9 10  2  0
 10 11  1  0
 11 12  2  0
 11 13  1  0
 10 14  1  0
 14 15  1  0
 15 16  1  0
 16 17  2  0
 17 18  1  0
 18 19  2  0
 19 20  1  0
 20 21  2  0
 21 22  1  0
 22 23  2  0
 23 24  1  0
 24 25  2  0
 14 26  1  0
 26 27  2  0
 27 28  1  0
 28 29  2  0
 29 30  1  0
 29 31  1  0
 31 32  2  0
 32  9  1  0
 25 16  1  0
 32 26  1  0
 25 20  1  0
  1 33  1  0
  1 34  1  0
  1 35  1  0
  2 36  1  0
  2 37  1  0
  7 38  1  0
  7 39  1  0
  7 40  1  0
  8 41  1  0
  8 42  1  0
 15 43  1  0
 15 44  1  0
 17 45  1  0
 18 46  1  0
 19 47  1  0
 21 48  1  0
 22 49  1  0
 23 50  1  0
 24 51  1  0
 27 52  1  0
 28 53  1  0
 31 54  1  0
M  CHG  1  13  -1
M  END
>  <meeko>  (259) 
{"free_energy": -5.12, "intermolecular_energy": -7.51, "internal_energy": -1.66, "cluster_size": 14, "cluster_id": 123, "rank_in_cluster": 3}

$$$$

     RDKit          3D

 54 57  0  0  0  0  0  0  0  0999 V2000
    6.9620   37.4560    7.1350 C   0  0  0  0  0  0  0  0  0  0  0  0
    7.5870   36.1520    7.6360 C   0  0  0  0  0  0  0  0  0  0  0  0
    7.3310   36.0150    9.0250 O   0  0  0  0  0  0  0  0  0  0  0  0
    7.7390   36.9720    9.8850 C   0  0  0  0  0  0  0  0  0  0  0  0
    7.1150   38.0160   10.0830 O   0  0  0  0  0  0  0  0  0  0  0  0
    8.9410   36.6000   10.5010 N   0  0  0  0  0  0  0  0  0  0  0  0
    9.8770   35.6570    9.8780 C   0  0  0  0  0  0  0  0  0  0  0  0
    9.3110   37.1170   11.8250 C   0  0  0  0  0  0  0  0  0  0  0  0
    9.6870   38.5790   11.7840 C   0  0  0  0  0  0  0  0  0  0  0  0
    9.9680   39.3710   10.6850 C   0  0  0  0  0  0  0  0  0  0  0  0
    9.9480   39.0250    9.2290 C   0  0  0  0  0  0  0  0  0  0  0  0
   10.9400   38.4470    8.7360 O   0  0  0  0  0  0  0  0  0  0  0  0
    8.9650   39.3240    8.5170 O   0  0  0  0  0  1  0  0  0  0  0  0
   10.3320   40.6590   11.1330 N   0  0  0  0  0  0  0  0  0  0  0  0
   10.7020   41.8300   10.3350 C   0  0  0  0  0  0  0  0  0  0  0  0
   12.1620   41.8540    9.8640 C   0  0  0  0  0  0  0  0  0  0  0  0
   12.5980   41.0180    8.8060 C   0  0  0  0  0  0  0  0  0  0  0  0
   13.9340   41.0370    8.3710 C   0  0  0  0  0  0  0  0  0  0  0  0
   14.8620   41.8910    8.9890 C   0  0  0  0  0  0  0  0  0  0  0  0
   14.4540   42.7300   10.0430 C   0  0  0  0  0  0  0  0  0  0  0  0
   15.3990   43.5820   10.6520 C   0  0  0  0  0  0  0  0  0  0  0  0
   15.0140   44.4290   11.7070 C   0  0  0  0  0  0  0  0  0  0  0  0
   13.6820   44.4250   12.1550 C   0  0  0  0  0  0  0  0  0  0  0  0
   12.7330   43.5770   11.5520 C   0  0  0  0  0  0  0  0  0  0  0  0
   13.1040   42.7180   10.4880 C   0  0  0  0  0  0  0  0  0  0  0  0
   10.2840   40.6900   12.5210 C   0  0  0  0  0  0  0  0  0  0  0  0
   10.5650   41.7150   13.4480 C   0  0  0  0  0  0  0  0  0  0  0  0
   10.4230   41.4740   14.8250 C   0  0  0  0  0  0  0  0  0  0  0  0
    9.9990   40.2090   15.2700 C   0  0  0  0  0  0  0  0  0  0  0  0
    9.8570   39.9710   16.5950 F   0  0  0  0  0  0  0  0  0  0  0  0
    9.7240   39.1900   14.3380 C   0  0  0  0  0  0  0  0  0  0  0  0
    9.8640   39.4010   12.9450 C   0  0  0  0  0  0  0  0  0  0  0  0
    6.6655   38.0746    7.9949 H   0  0  0  0  0  0  0  0  0  0  0  0
    7.6955   38.0035    6.5250 H   0  0  0  0  0  0  0  0  0  0  0  0
    6.0757   37.2272    6.5250 H   0  0  0  0  0  0  0  0  0  0  0  0
    7.1466   35.3014    7.0951 H   0  0  0  0  0  0  0  0  0  0  0  0
    8.6728   36.1715    7.4606 H   0  0  0  0  0  0  0  0  0  0  0  0
   10.4210   35.1089   10.6613 H   0  0  0  0  0  0  0  0  0  0  0  0
    9.3183   34.9449    9.2528 H   0  0  0  0  0  0  0  0  0  0  0  0
   10.5932   36.2103    9.2528 H   0  0  0  0  0  0  0  0  0  0  0  0
    8.4564   36.9904   12.5058 H   0  0  0  0  0  0  0  0  0  0  0  0
   10.1888   36.5531   12.1735 H   0  0  0  0  0  0  0  0  0  0  0  0
   10.0553   41.8559    9.4456 H   0  0  0  0  0  0  0  0  0  0  0  0
   10.5744   42.7038   10.9908 H   0  0  0  0  0  0  0  0  0  0  0  0
   11.8792   40.3436    8.3176 H   0  0  0  0  0  0  0  0  0  0  0  0
   14.2531   40.3828    7.5462 H   0  0  0  0  0  0  0  0  0  0  0  0
   15.9081   41.9042    8.6492 H   0  0  0  0  0  0  0  0  0  0  0  0
   16.4413   43.5841   10.3004 H   0  0  0  0  0  0  0  0  0  0  0  0
   15.7532   45.0924   12.1798 H   0  0  0  0  0  0  0  0  0  0  0  0
   13.3795   45.0868   12.9799 H   0  0  0  0  0  0  0  0  0  0  0  0
   11.6931   43.5816   11.9107 H   0  0  0  0  0  0  0  0  0  0  0  0
   10.8951   42.7025   13.0933 H   0  0  0  0  0  0  0  0  0  0  0  0
   10.6423   42.2706   15.5512 H   0  0  0  0  0  0  0  0  0  0  0  0
    9.3923   38.2060   14.7010 H   0  0  0  0  0  0  0  0  0  0  0  0
  1  2  1  0
  2  3  1  0
  3  4  1  0
  4  5  2  0
  4  6  1  0
  6  7  1  0
  6  8  1  0
  8  9  1  0
  9 10  2  0
 10 11  1  0
 11 12  2  0
 11 13  1  0
 10 14  1  0
 14 15  1  0
 15 16  1  0
 16 17  2  0
 17 18  1  0
 18 19  2  0
 19 20  1  0
 20 21  2  0
 21 22  1  0
 22 23  2  0
 23 24  1  0
 24 25  2  0
 14 26  1  0
 26 27  2  0
 27 28  1  0
 28 29  2  0
 29 30  1  0
 29 31  1  0
 31 32  2  0
 32  9  1  0
 25 16  1  0
 32 26  1  0
 25 20  1  0
  1 33  1  0
  1 34  1  0
  1 35  1  0
  2 36  1  0
  2 37  1  0
  7 38  1  0
  7 39  1  0
  7 40  1  0
  8 41  1  0
  8 42  1  0
 15 43  1  0
 15 44  1  0
 17 45  1  0
 18 46  1  0
 19 47  1  0
 21 48  1  0
 22 49  1  0
 23 50  1  0
 24 51  1  0
 27 52  1  0
 28 53  1  0
 31 54  1  0
M  CHG  1  13  -1
M  END
>  <meeko>  (260) 
{"free_energy": -4.52, "intermolecular_energy": -6.91, "internal_energy": -1.85, "cluster_size": 16, "cluster_id": 119, "rank_in_cluster": 12}

$$$$

     RDKit          3D

 54 57  0  0  0  0  0  0  0  0999 V2000
   12.3580   43.9710   12.5040 C   0  0  0  0  0  0  0  0  0  0  0  0
   12.9960   44.8900   11.4600 C   0  0  0  0  0  0  0  0  0  0  0  0
   14.0650   44.2060   10.8270 O   0  0  0  0  0  0  0  0  0  0  0  0
   13.8920   42.9430   10.3830 C   0  0  0  0  0  0  0  0  0  0  0  0
   14.2930   41.9500   10.9920 O   0  0  0  0  0  0  0  0  0  0  0  0
   13.2020   42.9410    9.1640 N   0  0  0  0  0  0  0  0  0  0  0  0
   13.8270   43.3840    7.9120 C   0  0  0  0  0  0  0  0  0  0  0  0
   11.7970   42.5200    9.0850 C   0  0  0  0  0  0  0  0  0  0  0  0
   11.5340   41.2540    9.8670 C   0  0  0  0  0  0  0  0  0  0  0  0
   10.5220   40.9900   10.7730 C   0  0  0  0  0  0  0  0  0  0  0  0
    9.3850   41.8570   11.2120 C   0  0  0  0  0  0  0  0  0  0  0  0
    8.3150   41.8150   10.5670 O   0  0  0  0  0  0  0  0  0  0  0  0
    9.5090   42.6210   12.1940 O   0  0  0  0  0  1  0  0  0  0  0  0
   10.7140   39.6960   11.3040 N   0  0  0  0  0  0  0  0  0  0  0  0
    9.8920   38.9840   12.2860 C   0  0  0  0  0  0  0  0  0  0  0  0
    9.1430   37.7630   11.7350 C   0  0  0  0  0  0  0  0  0  0  0  0
    8.9710   36.5990   12.5250 C   0  0  0  0  0  0  0  0  0  0  0  0
    8.2850   35.4790   12.0250 C   0  0  0  0  0  0  0  0  0  0  0  0
    7.7590   35.5010   10.7240 C   0  0  0  0  0  0  0  0  0  0  0  0
    7.9180   36.6450    9.9180 C   0  0  0  0  0  0  0  0  0  0  0  0
    7.3830   36.6500    8.6130 C   0  0  0  0  0  0  0  0  0  0  0  0
    7.5300   37.7810    7.7910 C   0  0  0  0  0  0  0  0  0  0  0  0
    8.2120   38.9120    8.2740 C   0  0  0  0  0  0  0  0  0  0  0  0
    8.7490   38.9140    9.5750 C   0  0  0  0  0  0  0  0  0  0  0  0
    8.6100   37.7830   10.4170 C   0  0  0  0  0  0  0  0  0  0  0  0
   11.8510   39.1330   10.7370 C   0  0  0  0  0  0  0  0  0  0  0  0
   12.4780   37.8860   10.9320 C   0  0  0  0  0  0  0  0  0  0  0  0
   13.6370   37.5630   10.2060 C   0  0  0  0  0  0  0  0  0  0  0  0
   14.1620   38.4870    9.2860 C   0  0  0  0  0  0  0  0  0  0  0  0
   15.2760   38.1800    8.5790 F   0  0  0  0  0  0  0  0  0  0  0  0
   13.5310   39.7320    9.0990 C   0  0  0  0  0  0  0  0  0  0  0  0
   12.3670   40.0880    9.8210 C   0  0  0  0  0  0  0  0  0  0  0  0
   12.6086   44.3320   13.5124 H   0  0  0  0  0  0  0  0  0  0  0  0
   11.2656   43.9724   12.3750 H   0  0  0  0  0  0  0  0  0  0  0  0
   12.7411   42.9480   12.3750 H   0  0  0  0  0  0  0  0  0  0  0  0
   12.2434   45.1716   10.7088 H   0  0  0  0  0  0  0  0  0  0  0  0
   13.3773   45.7977   11.9506 H   0  0  0  0  0  0  0  0  0  0  0  0
   14.7049   44.0062    8.1405 H   0  0  0  0  0  0  0  0  0  0  0  0
   14.1416   42.5061    7.3286 H   0  0  0  0  0  0  0  0  0  0  0  0
   13.1029   43.9716    7.3286 H   0  0  0  0  0  0  0  0  0  0  0  0
   11.1635   43.3235    9.4888 H   0  0  0  0  0  0  0  0  0  0  0  0
   11.5645   42.3182    8.0289 H   0  0  0  0  0  0  0  0  0  0  0  0
   10.5492   38.6436   13.0997 H   0  0  0  0  0  0  0  0  0  0  0  0
    9.1217   39.6953   12.6186 H   0  0  0  0  0  0  0  0  0  0  0  0
    9.3808   36.5718   13.5454 H   0  0  0  0  0  0  0  0  0  0  0  0
    8.1603   34.5849   12.6535 H   0  0  0  0  0  0  0  0  0  0  0  0
    7.2221   34.6240   10.3335 H   0  0  0  0  0  0  0  0  0  0  0  0
    6.8485   35.7653    8.2368 H   0  0  0  0  0  0  0  0  0  0  0  0
    7.1128   37.7812    6.7732 H   0  0  0  0  0  0  0  0  0  0  0  0
    8.3262   39.7984    7.6327 H   0  0  0  0  0  0  0  0  0  0  0  0
    9.2824   39.8033    9.9421 H   0  0  0  0  0  0  0  0  0  0  0  0
   12.0606   37.1664   11.6517 H   0  0  0  0  0  0  0  0  0  0  0  0
   14.1310   36.5918   10.3569 H   0  0  0  0  0  0  0  0  0  0  0  0
   13.9527   40.4445    8.3748 H   0  0  0  0  0  0  0  0  0  0  0  0
  1  2  1  0
  2  3  1  0
  3  4  1  0
  4  5  2  0
  4  6  1  0
  6  7  1  0
  6  8  1  0
  8  9  1  0
  9 10  2  0
 10 11  1  0
 11 12  2  0
 11 13  1  0
 10 14  1  0
 14 15  1  0
 15 16  1  0
 16 17  2  0
 17 18  1  0
 18 19  2  0
 19 20  1  0
 20 21  2  0
 21 22  1  0
 22 23  2  0
 23 24  1  0
 24 25  2  0
 14 26  1  0
 26 27  2  0
 27 28  1  0
 28 29  2  0
 29 30  1  0
 29 31  1  0
 31 32  2  0
 32  9  1  0
 25 16  1  0
 32 26  1  0
 25 20  1  0
  1 33  1  0
  1 34  1  0
  1 35  1  0
  2 36  1  0
  2 37  1  0
  7 38  1  0
  7 39  1  0
  7 40  1  0
  8 41  1  0
  8 42  1  0
 15 43  1  0
 15 44  1  0
 17 45  1  0
 18 46  1  0
 19 47  1  0
 21 48  1  0
 22 49  1  0
 23 50  1  0
 24 51  1  0
 27 52  1  0
 28 53  1  0
 31 54  1  0
M  CHG  1  13  -1
M  END
>  <meeko>  (261) 
{"free_energy": -5.3, "intermolecular_energy": -7.69, "internal_energy": -2.18, "cluster_size": 96, "cluster_id": 3, "rank_in_cluster": 83}

$$$$

     RDKit          3D

 54 57  0  0  0  0  0  0  0  0999 V2000
    6.2560   35.7470   17.4080 C   0  0  0  0  0  0  0  0  0  0  0  0
    7.7190   35.6550   16.9700 C   0  0  0  0  0  0  0  0  0  0  0  0
    7.7750   35.3760   15.5800 O   0  0  0  0  0  0  0  0  0  0  0  0
    8.4360   34.2870   15.1340 C   0  0  0  0  0  0  0  0  0  0  0  0
    7.8830   33.2140   14.8840 O   0  0  0  0  0  0  0  0  0  0  0  0
    9.8030   34.5620   14.9990 N   0  0  0  0  0  0  0  0  0  0  0  0
   10.7000   34.6430   16.1570 C   0  0  0  0  0  0  0  0  0  0  0  0
   10.4030   34.8130   13.6820 C   0  0  0  0  0  0  0  0  0  0  0  0
   10.1740   36.2300   13.2100 C   0  0  0  0  0  0  0  0  0  0  0  0
    9.6480   36.6690   12.0080 C   0  0  0  0  0  0  0  0  0  0  0  0
    9.1230   35.8780   10.8510 C   0  0  0  0  0  0  0  0  0  0  0  0
    9.8910   35.6290    9.8970 O   0  0  0  0  0  0  0  0  0  0  0  0
    7.9350   35.4900   10.8320 O   0  0  0  0  0  1  0  0  0  0  0  0
    9.6840   38.0790   11.9840 N   0  0  0  0  0  0  0  0  0  0  0  0
    9.2270   38.9840   10.9260 C   0  0  0  0  0  0  0  0  0  0  0  0
   10.3150   39.8920   10.3380 C   0  0  0  0  0  0  0  0  0  0  0  0
   10.0290   41.2360    9.9910 C   0  0  0  0  0  0  0  0  0  0  0  0
   11.0230   42.0720    9.4530 C   0  0  0  0  0  0  0  0  0  0  0  0
   12.3220   41.5780    9.2500 C   0  0  0  0  0  0  0  0  0  0  0  0
   12.6300   40.2460    9.5860 C   0  0  0  0  0  0  0  0  0  0  0  0
   13.9400   39.7670    9.3750 C   0  0  0  0  0  0  0  0  0  0  0  0
   14.2700   38.4400    9.7020 C   0  0  0  0  0  0  0  0  0  0  0  0
   13.2900   37.5890   10.2430 C   0  0  0  0  0  0  0  0  0  0  0  0
   11.9810   38.0610   10.4550 C   0  0  0  0  0  0  0  0  0  0  0  0
   11.6310   39.3950   10.1310 C   0  0  0  0  0  0  0  0  0  0  0  0
   10.2350   38.5430   13.1710 C   0  0  0  0  0  0  0  0  0  0  0  0
   10.5050   39.8470   13.6360 C   0  0  0  0  0  0  0  0  0  0  0  0
   11.0700   40.0350   14.9080 C   0  0  0  0  0  0  0  0  0  0  0  0
   11.3640   38.9190   15.7120 C   0  0  0  0  0  0  0  0  0  0  0  0
   11.9060   39.0940   16.9400 F   0  0  0  0  0  0  0  0  0  0  0  0
   11.0960   37.6200   15.2390 C   0  0  0  0  0  0  0  0  0  0  0  0
   10.5320   37.3990   13.9590 C   0  0  0  0  0  0  0  0  0  0  0  0
    6.2017   35.7504   18.5067 H   0  0  0  0  0  0  0  0  0  0  0  0
    5.8136   36.6747   17.0161 H   0  0  0  0  0  0  0  0  0  0  0  0
    5.7008   34.8820   17.0161 H   0  0  0  0  0  0  0  0  0  0  0  0
    8.2245   36.6105   17.1738 H   0  0  0  0  0  0  0  0  0  0  0  0
    8.2212   34.8510   17.5280 H   0  0  0  0  0  0  0  0  0  0  0  0
   10.1089   34.5896   17.0831 H   0  0  0  0  0  0  0  0  0  0  0  0
   11.4126   33.8056   16.1281 H   0  0  0  0  0  0  0  0  0  0  0  0
   11.2511   35.5946   16.1281 H   0  0  0  0  0  0  0  0  0  0  0  0
   11.4861   34.6318   13.7460 H   0  0  0  0  0  0  0  0  0  0  0  0
    9.9253   34.1354   12.9591 H   0  0  0  0  0  0  0  0  0  0  0  0
    8.8131   38.3739   10.1096 H   0  0  0  0  0  0  0  0  0  0  0  0
    8.4857   39.6514   11.3898 H   0  0  0  0  0  0  0  0  0  0  0  0
    9.0140   41.6310   10.1450 H   0  0  0  0  0  0  0  0  0  0  0  0
   10.7834   43.1131    9.1910 H   0  0  0  0  0  0  0  0  0  0  0  0
   13.0992   42.2323    8.8282 H   0  0  0  0  0  0  0  0  0  0  0  0
   14.7061   40.4341    8.9531 H   0  0  0  0  0  0  0  0  0  0  0  0
   15.2919   38.0686    9.5351 H   0  0  0  0  0  0  0  0  0  0  0  0
   13.5472   36.5512   10.5013 H   0  0  0  0  0  0  0  0  0  0  0  0
   11.2213   37.3866   10.8769 H   0  0  0  0  0  0  0  0  0  0  0  0
   10.2732   40.7161   13.0028 H   0  0  0  0  0  0  0  0  0  0  0  0
   11.2817   41.0506   15.2738 H   0  0  0  0  0  0  0  0  0  0  0  0
   11.3303   36.7565   15.8789 H   0  0  0  0  0  0  0  0  0  0  0  0
  1  2  1  0
  2  3  1  0
  3  4  1  0
  4  5  2  0
  4  6  1  0
  6  7  1  0
  6  8  1  0
  8  9  1  0
  9 10  2  0
 10 11  1  0
 11 12  2  0
 11 13  1  0
 10 14  1  0
 14 15  1  0
 15 16  1  0
 16 17  2  0
 17 18  1  0
 18 19  2  0
 19 20  1  0
 20 21  2  0
 21 22  1  0
 22 23  2  0
 23 24  1  0
 24 25  2  0
 14 26  1  0
 26 27  2  0
 27 28  1  0
 28 29  2  0
 29 30  1  0
 29 31  1  0
 31 32  2  0
 32  9  1  0
 25 16  1  0
 32 26  1  0
 25 20  1  0
  1 33  1  0
  1 34  1  0
  1 35  1  0
  2 36  1  0
  2 37  1  0
  7 38  1  0
  7 39  1  0
  7 40  1  0
  8 41  1  0
  8 42  1  0
 15 43  1  0
 15 44  1  0
 17 45  1  0
 18 46  1  0
 19 47  1  0
 21 48  1  0
 22 49  1  0
 23 50  1  0
 24 51  1  0
 27 52  1  0
 28 53  1  0
 31 54  1  0
M  CHG  1  13  -1
M  END
>  <meeko>  (262) 
{"free_energy": -5.67, "intermolecular_energy": -8.05, "internal_energy": -1.92, "cluster_size": 37, "cluster_id": 102, "rank_in_cluster": 1}

$$$$

     RDKit          3D

 54 57  0  0  0  0  0  0  0  0999 V2000
   10.1340   35.9050   12.6760 C   0  0  0  0  0  0  0  0  0  0  0  0
   10.0780   37.4340   12.6890 C   0  0  0  0  0  0  0  0  0  0  0  0
   10.8940   37.9230   13.7410 O   0  0  0  0  0  0  0  0  0  0  0  0
   10.3280   38.4940   14.8260 C   0  0  0  0  0  0  0  0  0  0  0  0
    9.2110   39.0130   14.8140 O   0  0  0  0  0  0  0  0  0  0  0  0
   11.1820   38.3990   15.9330 N   0  0  0  0  0  0  0  0  0  0  0  0
   12.5940   38.0240   15.7990 C   0  0  0  0  0  0  0  0  0  0  0  0
   10.6930   38.6460   17.2960 C   0  0  0  0  0  0  0  0  0  0  0  0
    9.4890   37.7980   17.6330 C   0  0  0  0  0  0  0  0  0  0  0  0
    8.4940   38.0380   18.5650 C   0  0  0  0  0  0  0  0  0  0  0  0
    8.3020   39.2100   19.4750 C   0  0  0  0  0  0  0  0  0  0  0  0
    7.3610   40.0000   19.2470 O   0  0  0  0  0  0  0  0  0  0  0  0
    9.0810   39.4050   20.4340 O   0  0  0  0  0  1  0  0  0  0  0  0
    7.6080   36.9390   18.5770 N   0  0  0  0  0  0  0  0  0  0  0  0
    6.4040   36.7490   19.3910 C   0  0  0  0  0  0  0  0  0  0  0  0
    5.0820   36.8360   18.6170 C   0  0  0  0  0  0  0  0  0  0  0  0
    5.0170   36.4700   17.2490 C   0  0  0  0  0  0  0  0  0  0  0  0
    3.8080   36.5480   16.5360 C   0  0  0  0  0  0  0  0  0  0  0  0
    2.6420   36.9940   17.1770 C   0  0  0  0  0  0  0  0  0  0  0  0
    2.6810   37.3640   18.5350 C   0  0  0  0  0  0  0  0  0  0  0  0
    1.5000   37.8110   19.1630 C   0  0  0  0  0  0  0  0  0  0  0  0
    1.5160   38.1870   20.5180 C   0  0  0  0  0  0  0  0  0  0  0  0
    2.7150   38.1150   21.2490 C   0  0  0  0  0  0  0  0  0  0  0  0
    3.8980   37.6710   20.6280 C   0  0  0  0  0  0  0  0  0  0  0  0
    3.9000   37.2880   19.2630 C   0  0  0  0  0  0  0  0  0  0  0  0
    8.0370   35.9950   17.6530 C   0  0  0  0  0  0  0  0  0  0  0  0
    7.5240   34.7330   17.2920 C   0  0  0  0  0  0  0  0  0  0  0  0
    8.1640   33.9740   16.2980 C   0  0  0  0  0  0  0  0  0  0  0  0
    9.3150   34.4800   15.6690 C   0  0  0  0  0  0  0  0  0  0  0  0
    9.9350   33.7550   14.7080 F   0  0  0  0  0  0  0  0  0  0  0  0
    9.8240   35.7400   16.0380 C   0  0  0  0  0  0  0  0  0  0  0  0
    9.2040   36.5250   17.0400 C   0  0  0  0  0  0  0  0  0  0  0  0
   10.1477   35.5298   13.7099 H   0  0  0  0  0  0  0  0  0  0  0  0
    9.2497   35.5101   12.1544 H   0  0  0  0  0  0  0  0  0  0  0  0
   11.0448   35.5759   12.1544 H   0  0  0  0  0  0  0  0  0  0  0  0
   10.4447   37.8235   11.7278 H   0  0  0  0  0  0  0  0  0  0  0  0
    9.0400   37.7639   12.8433 H   0  0  0  0  0  0  0  0  0  0  0  0
   13.0384   37.9060   16.7983 H   0  0  0  0  0  0  0  0  0  0  0  0
   12.6706   37.0744   15.2491 H   0  0  0  0  0  0  0  0  0  0  0  0
   13.1317   38.8105   15.2491 H   0  0  0  0  0  0  0  0  0  0  0  0
   11.4989   38.4160   18.0085 H   0  0  0  0  0  0  0  0  0  0  0  0
   10.3909   39.7018   17.3601 H   0  0  0  0  0  0  0  0  0  0  0  0
    6.4612   35.7554   19.8594 H   0  0  0  0  0  0  0  0  0  0  0  0
    6.3903   37.5730   20.1196 H   0  0  0  0  0  0  0  0  0  0  0  0
    5.9259   36.1198   16.7379 H   0  0  0  0  0  0  0  0  0  0  0  0
    3.7759   36.2593   15.4751 H   0  0  0  0  0  0  0  0  0  0  0  0
    1.6966   37.0546   16.6180 H   0  0  0  0  0  0  0  0  0  0  0  0
    0.5623   37.8658   18.5905 H   0  0  0  0  0  0  0  0  0  0  0  0
    0.5934   38.5364   21.0045 H   0  0  0  0  0  0  0  0  0  0  0  0
    2.7288   38.4065   22.3096 H   0  0  0  0  0  0  0  0  0  0  0  0
    4.8311   37.6207   21.2084 H   0  0  0  0  0  0  0  0  0  0  0  0
    6.6232   34.3426   17.7881 H   0  0  0  0  0  0  0  0  0  0  0  0
    7.7665   32.9887   16.0133 H   0  0  0  0  0  0  0  0  0  0  0  0
   10.7245   36.1234   15.5360 H   0  0  0  0  0  0  0  0  0  0  0  0
  1  2  1  0
  2  3  1  0
  3  4  1  0
  4  5  2  0
  4  6  1  0
  6  7  1  0
  6  8  1  0
  8  9  1  0
  9 10  2  0
 10 11  1  0
 11 12  2  0
 11 13  1  0
 10 14  1  0
 14 15  1  0
 15 16  1  0
 16 17  2  0
 17 18  1  0
 18 19  2  0
 19 20  1  0
 20 21  2  0
 21 22  1  0
 22 23  2  0
 23 24  1  0
 24 25  2  0
 14 26  1  0
 26 27  2  0
 27 28  1  0
 28 29  2  0
 29 30  1  0
 29 31  1  0
 31 32  2  0
 32  9  1  0
 25 16  1  0
 32 26  1  0
 25 20  1  0
  1 33  1  0
  1 34  1  0
  1 35  1  0
  2 36  1  0
  2 37  1  0
  7 38  1  0
  7 39  1  0
  7 40  1  0
  8 41  1  0
  8 42  1  0
 15 43  1  0
 15 44  1  0
 17 45  1  0
 18 46  1  0
 19 47  1  0
 21 48  1  0
 22 49  1  0
 23 50  1  0
 24 51  1  0
 27 52  1  0
 28 53  1  0
 31 54  1  0
M  CHG  1  13  -1
M  END
>  <meeko>  (263) 
{"free_energy": -6.39, "intermolecular_energy": -8.77, "internal_energy": -1.69, "cluster_size": 136, "cluster_id": 17, "rank_in_cluster": 23}

$$$$

     RDKit          3D

 54 57  0  0  0  0  0  0  0  0999 V2000
    5.9270   36.1980   18.9070 C   0  0  0  0  0  0  0  0  0  0  0  0
    7.4550   36.1660   18.9890 C   0  0  0  0  0  0  0  0  0  0  0  0
    7.9290   34.9640   18.4040 O   0  0  0  0  0  0  0  0  0  0  0  0
    7.6810   34.7020   17.1030 C   0  0  0  0  0  0  0  0  0  0  0  0
    6.7400   34.0050   16.7200 O   0  0  0  0  0  0  0  0  0  0  0  0
    8.6280   35.3320   16.2850 N   0  0  0  0  0  0  0  0  0  0  0  0
    9.8960   34.6890   15.9210 C   0  0  0  0  0  0  0  0  0  0  0  0
    8.4080   36.6910   15.7720 C   0  0  0  0  0  0  0  0  0  0  0  0
    9.4430   37.0900   14.7480 C   0  0  0  0  0  0  0  0  0  0  0  0
   10.5700   37.8750   14.9150 C   0  0  0  0  0  0  0  0  0  0  0  0
   11.1070   38.5230   16.1530 C   0  0  0  0  0  0  0  0  0  0  0  0
   12.0950   38.0080   16.7190 O   0  0  0  0  0  0  0  0  0  0  0  0
   10.5640   39.5470   16.6210 O   0  0  0  0  0  1  0  0  0  0  0  0
   11.2060   38.0310   13.6640 N   0  0  0  0  0  0  0  0  0  0  0  0
   12.4330   38.7680   13.3520 C   0  0  0  0  0  0  0  0  0  0  0  0
   12.3760   39.6000   12.0640 C   0  0  0  0  0  0  0  0  0  0  0  0
   11.4570   40.6710   11.9310 C   0  0  0  0  0  0  0  0  0  0  0  0
   11.4010   41.4350   10.7530 C   0  0  0  0  0  0  0  0  0  0  0  0
   12.2630   41.1420    9.6840 C   0  0  0  0  0  0  0  0  0  0  0  0
   13.1830   40.0830    9.7910 C   0  0  0  0  0  0  0  0  0  0  0  0
   14.0410   39.8020    8.7070 C   0  0  0  0  0  0  0  0  0  0  0  0
   14.9680   38.7480    8.7910 C   0  0  0  0  0  0  0  0  0  0  0  0
   15.0400   37.9720    9.9620 C   0  0  0  0  0  0  0  0  0  0  0  0
   14.1860   38.2470   11.0470 C   0  0  0  0  0  0  0  0  0  0  0  0
   13.2470   39.3050   10.9790 C   0  0  0  0  0  0  0  0  0  0  0  0
   10.4840   37.3450   12.6960 C   0  0  0  0  0  0  0  0  0  0  0  0
   10.6800   37.1960   11.3070 C   0  0  0  0  0  0  0  0  0  0  0  0
    9.7830   36.4230   10.5520 C   0  0  0  0  0  0  0  0  0  0  0  0
    8.6950   35.8000   11.1870 C   0  0  0  0  0  0  0  0  0  0  0  0
    7.8280   35.0510   10.4650 F   0  0  0  0  0  0  0  0  0  0  0  0
    8.5030   35.9560   12.5730 C   0  0  0  0  0  0  0  0  0  0  0  0
    9.3870   36.7350   13.3600 C   0  0  0  0  0  0  0  0  0  0  0  0
    5.5054   36.2068   19.9230 H   0  0  0  0  0  0  0  0  0  0  0  0
    5.6075   37.1030   18.3696 H   0  0  0  0  0  0  0  0  0  0  0  0
    5.5699   35.3071   18.3696 H   0  0  0  0  0  0  0  0  0  0  0  0
    7.8706   37.0279   18.4464 H   0  0  0  0  0  0  0  0  0  0  0  0
    7.7694   36.2132   20.0421 H   0  0  0  0  0  0  0  0  0  0  0  0
   10.4422   34.4120   16.8347 H   0  0  0  0  0  0  0  0  0  0  0  0
    9.6919   33.7855   15.3277 H   0  0  0  0  0  0  0  0  0  0  0  0
   10.5043   35.3876   15.3277 H   0  0  0  0  0  0  0  0  0  0  0  0
    7.4128   36.7365   15.3057 H   0  0  0  0  0  0  0  0  0  0  0  0
    8.4861   37.3879   16.6194 H   0  0  0  0  0  0  0  0  0  0  0  0
   12.6453   39.4487   14.1896 H   0  0  0  0  0  0  0  0  0  0  0  0
   13.2166   38.0118   13.1968 H   0  0  0  0  0  0  0  0  0  0  0  0
   10.7772   40.9077   12.7628 H   0  0  0  0  0  0  0  0  0  0  0  0
   10.6817   42.2629   10.6683 H   0  0  0  0  0  0  0  0  0  0  0  0
   12.2189   41.7408    8.7623 H   0  0  0  0  0  0  0  0  0  0  0  0
   13.9846   40.4101    7.7921 H   0  0  0  0  0  0  0  0  0  0  0  0
   15.6349   38.5310    7.9435 H   0  0  0  0  0  0  0  0  0  0  0  0
   15.7655   37.1480   10.0302 H   0  0  0  0  0  0  0  0  0  0  0  0
   14.2488   37.6333   11.9577 H   0  0  0  0  0  0  0  0  0  0  0  0
   11.5344   37.6847   10.8159 H   0  0  0  0  0  0  0  0  0  0  0  0
    9.9313   36.3057    9.4684 H   0  0  0  0  0  0  0  0  0  0  0  0
    7.6471   35.4618   13.0560 H   0  0  0  0  0  0  0  0  0  0  0  0
  1  2  1  0
  2  3  1  0
  3  4  1  0
  4  5  2  0
  4  6  1  0
  6  7  1  0
  6  8  1  0
  8  9  1  0
  9 10  2  0
 10 11  1  0
 11 12  2  0
 11 13  1  0
 10 14  1  0
 14 15  1  0
 15 16  1  0
 16 17  2  0
 17 18  1  0
 18 19  2  0
 19 20  1  0
 20 21  2  0
 21 22  1  0
 22 23  2  0
 23 24  1  0
 24 25  2  0
 14 26  1  0
 26 27  2  0
 27 28  1  0
 28 29  2  0
 29 30  1  0
 29 31  1  0
 31 32  2  0
 32  9  1  0
 25 16  1  0
 32 26  1  0
 25 20  1  0
  1 33  1  0
  1 34  1  0
  1 35  1  0
  2 36  1  0
  2 37  1  0
  7 38  1  0
  7 39  1  0
  7 40  1  0
  8 41  1  0
  8 42  1  0
 15 43  1  0
 15 44  1  0
 17 45  1  0
 18 46  1  0
 19 47  1  0
 21 48  1  0
 22 49  1  0
 23 50  1  0
 24 51  1  0
 27 52  1  0
 28 53  1  0
 31 54  1  0
M  CHG  1  13  -1
M  END
>  <meeko>  (264) 
{"free_energy": -5.46, "intermolecular_energy": -7.85, "internal_energy": -1.75, "cluster_size": 84, "cluster_id": 58, "rank_in_cluster": 40}

$$$$

     RDKit          3D

 54 57  0  0  0  0  0  0  0  0999 V2000
    9.9510   34.4100   16.6370 C   0  0  0  0  0  0  0  0  0  0  0  0
    8.8140   34.0460   15.6800 C   0  0  0  0  0  0  0  0  0  0  0  0
    7.9580   35.1660   15.5250 O   0  0  0  0  0  0  0  0  0  0  0  0
    8.4770   36.3800   15.2410 C   0  0  0  0  0  0  0  0  0  0  0  0
    8.4350   37.3340   16.0190 O   0  0  0  0  0  0  0  0  0  0  0  0
    9.0580   36.3800   13.9660 N   0  0  0  0  0  0  0  0  0  0  0  0
    8.5950   35.4860   12.8980 C   0  0  0  0  0  0  0  0  0  0  0  0
   10.1870   37.2610   13.6430 C   0  0  0  0  0  0  0  0  0  0  0  0
    9.7660   38.4480   12.8080 C   0  0  0  0  0  0  0  0  0  0  0  0
    9.6980   39.7820   13.1700 C   0  0  0  0  0  0  0  0  0  0  0  0
   10.0520   40.4370   14.4670 C   0  0  0  0  0  0  0  0  0  0  0  0
    9.2920   41.3210   14.9200 O   0  0  0  0  0  0  0  0  0  0  0  0
   11.0970   40.1210   15.0770 O   0  0  0  0  0  1  0  0  0  0  0  0
    9.1890   40.5230   12.0820 N   0  0  0  0  0  0  0  0  0  0  0  0
    8.9520   41.9660   11.9940 C   0  0  0  0  0  0  0  0  0  0  0  0
   10.2030   42.8370   12.1710 C   0  0  0  0  0  0  0  0  0  0  0  0
   10.2200   43.9030   13.1050 C   0  0  0  0  0  0  0  0  0  0  0  0
   11.3630   44.7030   13.2710 C   0  0  0  0  0  0  0  0  0  0  0  0
   12.5120   44.4540   12.5020 C   0  0  0  0  0  0  0  0  0  0  0  0
   12.5190   43.4030   11.5660 C   0  0  0  0  0  0  0  0  0  0  0  0
   13.6820   43.1670   10.8020 C   0  0  0  0  0  0  0  0  0  0  0  0
   13.7120   42.1230    9.8610 C   0  0  0  0  0  0  0  0  0  0  0  0
   12.5780   41.3100    9.6820 C   0  0  0  0  0  0  0  0  0  0  0  0
   11.4140   41.5400   10.4410 C   0  0  0  0  0  0  0  0  0  0  0  0
   11.3670   42.5880   11.3930 C   0  0  0  0  0  0  0  0  0  0  0  0
    8.9310   39.6620   11.0230 C   0  0  0  0  0  0  0  0  0  0  0  0
    8.4090   39.8890    9.7330 C   0  0  0  0  0  0  0  0  0  0  0  0
    8.2560   38.8150    8.8390 C   0  0  0  0  0  0  0  0  0  0  0  0
    8.6270   37.5190    9.2380 C   0  0  0  0  0  0  0  0  0  0  0  0
    8.4860   36.4810    8.3800 F   0  0  0  0  0  0  0  0  0  0  0  0
    9.1440   37.3000   10.5300 C   0  0  0  0  0  0  0  0  0  0  0  0
    9.3030   38.3600   11.4540 C   0  0  0  0  0  0  0  0  0  0  0  0
    9.6057   34.2995   17.6755 H   0  0  0  0  0  0  0  0  0  0  0  0
   10.8062   33.7407   16.4617 H   0  0  0  0  0  0  0  0  0  0  0  0
   10.2585   35.4515   16.4617 H   0  0  0  0  0  0  0  0  0  0  0  0
    9.2321   33.7644   14.7023 H   0  0  0  0  0  0  0  0  0  0  0  0
    8.2437   33.1990   16.0891 H   0  0  0  0  0  0  0  0  0  0  0  0
    8.1323   34.5926   13.3426 H   0  0  0  0  0  0  0  0  0  0  0  0
    7.8553   36.0108   12.2755 H   0  0  0  0  0  0  0  0  0  0  0  0
    9.4504   35.1847   12.2755 H   0  0  0  0  0  0  0  0  0  0  0  0
   10.6298   37.6273   14.5810 H   0  0  0  0  0  0  0  0  0  0  0  0
   10.9130   36.6777   13.0576 H   0  0  0  0  0  0  0  0  0  0  0  0
    8.5220   42.1822   11.0049 H   0  0  0  0  0  0  0  0  0  0  0  0
    8.2785   42.2198   12.8258 H   0  0  0  0  0  0  0  0  0  0  0  0
    9.3240   44.1072   13.7095 H   0  0  0  0  0  0  0  0  0  0  0  0
   11.3582   45.5241   14.0029 H   0  0  0  0  0  0  0  0  0  0  0  0
   13.4066   45.0808   12.6315 H   0  0  0  0  0  0  0  0  0  0  0  0
   14.5686   43.8026   10.9434 H   0  0  0  0  0  0  0  0  0  0  0  0
   14.6196   41.9423    9.2664 H   0  0  0  0  0  0  0  0  0  0  0  0
   12.6004   40.4920    8.9469 H   0  0  0  0  0  0  0  0  0  0  0  0
   10.5323   40.8992   10.2930 H   0  0  0  0  0  0  0  0  0  0  0  0
    8.1217   40.9056    9.4264 H   0  0  0  0  0  0  0  0  0  0  0  0
    7.8480   38.9878    7.8322 H   0  0  0  0  0  0  0  0  0  0  0  0
    9.4310   36.2807   10.8277 H   0  0  0  0  0  0  0  0  0  0  0  0
  1  2  1  0
  2  3  1  0
  3  4  1  0
  4  5  2  0
  4  6  1  0
  6  7  1  0
  6  8  1  0
  8  9  1  0
  9 10  2  0
 10 11  1  0
 11 12  2  0
 11 13  1  0
 10 14  1  0
 14 15  1  0
 15 16  1  0
 16 17  2  0
 17 18  1  0
 18 19  2  0
 19 20  1  0
 20 21  2  0
 21 22  1  0
 22 23  2  0
 23 24  1  0
 24 25  2  0
 14 26  1  0
 26 27  2  0
 27 28  1  0
 28 29  2  0
 29 30  1  0
 29 31  1  0
 31 32  2  0
 32  9  1  0
 25 16  1  0
 32 26  1  0
 25 20  1  0
  1 33  1  0
  1 34  1  0
  1 35  1  0
  2 36  1  0
  2 37  1  0
  7 38  1  0
  7 39  1  0
  7 40  1  0
  8 41  1  0
  8 42  1  0
 15 43  1  0
 15 44  1  0
 17 45  1  0
 18 46  1  0
 19 47  1  0
 21 48  1  0
 22 49  1  0
 23 50  1  0
 24 51  1  0
 27 52  1  0
 28 53  1  0
 31 54  1  0
M  CHG  1  13  -1
M  END
>  <meeko>  (265) 
{"free_energy": -5.3, "intermolecular_energy": -7.68, "internal_energy": -1.82, "cluster_size": 318, "cluster_id": 5, "rank_in_cluster": 275}

$$$$

     RDKit          3D

 54 57  0  0  0  0  0  0  0  0999 V2000
    8.1180   39.5810    8.7240 C   0  0  0  0  0  0  0  0  0  0  0  0
    8.7700   38.1970    8.7700 C   0  0  0  0  0  0  0  0  0  0  0  0
    9.2020   37.9280   10.0940 O   0  0  0  0  0  0  0  0  0  0  0  0
    8.9860   36.7130   10.6430 C   0  0  0  0  0  0  0  0  0  0  0  0
    7.9260   36.0970   10.5280 O   0  0  0  0  0  0  0  0  0  0  0  0
   10.1240   36.2770   11.3340 N   0  0  0  0  0  0  0  0  0  0  0  0
   11.4800   36.4870   10.8160 C   0  0  0  0  0  0  0  0  0  0  0  0
   10.0100   35.5550   12.6080 C   0  0  0  0  0  0  0  0  0  0  0  0
    9.8900   36.4920   13.7880 C   0  0  0  0  0  0  0  0  0  0  0  0
    9.4910   36.2080   15.0820 C   0  0  0  0  0  0  0  0  0  0  0  0
    9.1000   34.9010   15.6950 C   0  0  0  0  0  0  0  0  0  0  0  0
    9.6460   34.5520   16.7640 O   0  0  0  0  0  0  0  0  0  0  0  0
    8.2580   34.1630   15.1380 O   0  0  0  0  0  1  0  0  0  0  0  0
    9.4700   37.4090   15.8240 N   0  0  0  0  0  0  0  0  0  0  0  0
    9.1220   37.6020   17.2350 C   0  0  0  0  0  0  0  0  0  0  0  0
    7.7200   37.1150   17.6250 C   0  0  0  0  0  0  0  0  0  0  0  0
    6.7560   36.8060   16.6330 C   0  0  0  0  0  0  0  0  0  0  0  0
    5.4710   36.3610   16.9870 C   0  0  0  0  0  0  0  0  0  0  0  0
    5.1250   36.2180   18.3400 C   0  0  0  0  0  0  0  0  0  0  0  0
    6.0640   36.5200   19.3440 C   0  0  0  0  0  0  0  0  0  0  0  0
    5.6980   36.3720   20.6980 C   0  0  0  0  0  0  0  0  0  0  0  0
    6.6200   36.6680   21.7180 C   0  0  0  0  0  0  0  0  0  0  0  0
    7.9120   37.1150   21.3850 C   0  0  0  0  0  0  0  0  0  0  0  0
    8.2820   37.2660   20.0350 C   0  0  0  0  0  0  0  0  0  0  0  0
    7.3660   36.9710   18.9950 C   0  0  0  0  0  0  0  0  0  0  0  0
    9.8550   38.4610   15.0030 C   0  0  0  0  0  0  0  0  0  0  0  0
    9.9850   39.8440   15.2460 C   0  0  0  0  0  0  0  0  0  0  0  0
   10.4110   40.7000   14.2170 C   0  0  0  0  0  0  0  0  0  0  0  0
   10.7080   40.1700   12.9490 C   0  0  0  0  0  0  0  0  0  0  0  0
   11.1240   40.9890   11.9540 F   0  0  0  0  0  0  0  0  0  0  0  0
   10.5730   38.7880   12.7130 C   0  0  0  0  0  0  0  0  0  0  0  0
   10.1390   37.9020   13.7280 C   0  0  0  0  0  0  0  0  0  0  0  0
    7.9485   39.9407    9.7496 H   0  0  0  0  0  0  0  0  0  0  0  0
    8.7809   40.2812    8.1947 H   0  0  0  0  0  0  0  0  0  0  0  0
    7.1559   39.5157    8.1947 H   0  0  0  0  0  0  0  0  0  0  0  0
    8.0392   37.4357    8.4598 H   0  0  0  0  0  0  0  0  0  0  0  0
    9.6326   38.1723    8.0879 H   0  0  0  0  0  0  0  0  0  0  0  0
   12.1810   36.5956   11.6568 H   0  0  0  0  0  0  0  0  0  0  0  0
   11.7755   35.6239   10.2014 H   0  0  0  0  0  0  0  0  0  0  0  0
   11.5006   37.3990   10.2014 H   0  0  0  0  0  0  0  0  0  0  0  0
    9.1169   34.9138   12.5728 H   0  0  0  0  0  0  0  0  0  0  0  0
   10.9256   34.9602   12.7415 H   0  0  0  0  0  0  0  0  0  0  0  0
    9.8560   37.0563   17.8461 H   0  0  0  0  0  0  0  0  0  0  0  0
    9.1323   38.6879   17.4105 H   0  0  0  0  0  0  0  0  0  0  0  0
    7.0176   36.9162   15.5703 H   0  0  0  0  0  0  0  0  0  0  0  0
    4.7359   36.1246   16.2036 H   0  0  0  0  0  0  0  0  0  0  0  0
    4.1188   35.8695   18.6158 H   0  0  0  0  0  0  0  0  0  0  0  0
    4.6874   36.0237   20.9573 H   0  0  0  0  0  0  0  0  0  0  0  0
    6.3319   36.5504   22.7731 H   0  0  0  0  0  0  0  0  0  0  0  0
    8.6346   37.3470   22.1813 H   0  0  0  0  0  0  0  0  0  0  0  0
    9.2940   37.6171   19.7847 H   0  0  0  0  0  0  0  0  0  0  0  0
    9.7529   40.2522   16.2408 H   0  0  0  0  0  0  0  0  0  0  0  0
   10.5117   41.7796   14.4023 H   0  0  0  0  0  0  0  0  0  0  0  0
   10.8105   38.3877   11.7163 H   0  0  0  0  0  0  0  0  0  0  0  0
  1  2  1  0
  2  3  1  0
  3  4  1  0
  4  5  2  0
  4  6  1  0
  6  7  1  0
  6  8  1  0
  8  9  1  0
  9 10  2  0
 10 11  1  0
 11 12  2  0
 11 13  1  0
 10 14  1  0
 14 15  1  0
 15 16  1  0
 16 17  2  0
 17 18  1  0
 18 19  2  0
 19 20  1  0
 20 21  2  0
 21 22  1  0
 22 23  2  0
 23 24  1  0
 24 25  2  0
 14 26  1  0
 26 27  2  0
 27 28  1  0
 28 29  2  0
 29 30  1  0
 29 31  1  0
 31 32  2  0
 32  9  1  0
 25 16  1  0
 32 26  1  0
 25 20  1  0
  1 33  1  0
  1 34  1  0
  1 35  1  0
  2 36  1  0
  2 37  1  0
  7 38  1  0
  7 39  1  0
  7 40  1  0
  8 41  1  0
  8 42  1  0
 15 43  1  0
 15 44  1  0
 17 45  1  0
 18 46  1  0
 19 47  1  0
 21 48  1  0
 22 49  1  0
 23 50  1  0
 24 51  1  0
 27 52  1  0
 28 53  1  0
 31 54  1  0
M  CHG  1  13  -1
M  END
>  <meeko>  (266) 
{"free_energy": -5.52, "intermolecular_energy": -7.91, "internal_energy": -1.63, "cluster_size": 136, "cluster_id": 23, "rank_in_cluster": 86}

$$$$

     RDKit          3D

 54 57  0  0  0  0  0  0  0  0999 V2000
   11.0700   35.5170   15.8750 C   0  0  0  0  0  0  0  0  0  0  0  0
   10.4770   36.0080   17.1980 C   0  0  0  0  0  0  0  0  0  0  0  0
   10.7120   37.4010   17.3260 O   0  0  0  0  0  0  0  0  0  0  0  0
   10.2290   38.2570   16.3990 C   0  0  0  0  0  0  0  0  0  0  0  0
    9.1810   38.0650   15.7810 O   0  0  0  0  0  0  0  0  0  0  0  0
   11.0780   39.3630   16.2620 N   0  0  0  0  0  0  0  0  0  0  0  0
   12.5040   39.2990   16.6000 C   0  0  0  0  0  0  0  0  0  0  0  0
   10.5690   40.6600   15.7970 C   0  0  0  0  0  0  0  0  0  0  0  0
   10.3070   40.6710   14.3090 C   0  0  0  0  0  0  0  0  0  0  0  0
   10.8990   39.9080   13.3190 C   0  0  0  0  0  0  0  0  0  0  0  0
   11.9360   38.8360   13.4330 C   0  0  0  0  0  0  0  0  0  0  0  0
   11.5960   37.7150   13.8700 O   0  0  0  0  0  0  0  0  0  0  0  0
   13.1240   39.0630   13.1160 O   0  0  0  0  0  1  0  0  0  0  0  0
   10.3830   40.3080   12.0670 N   0  0  0  0  0  0  0  0  0  0  0  0
   10.7050   39.7790   10.7390 C   0  0  0  0  0  0  0  0  0  0  0  0
   10.1350   38.3850   10.4440 C   0  0  0  0  0  0  0  0  0  0  0  0
   10.6550   37.2360   11.0920 C   0  0  0  0  0  0  0  0  0  0  0  0
   10.1360   35.9580   10.8250 C   0  0  0  0  0  0  0  0  0  0  0  0
    9.0890   35.8030    9.9030 C   0  0  0  0  0  0  0  0  0  0  0  0
    8.5570   36.9280    9.2460 C   0  0  0  0  0  0  0  0  0  0  0  0
    7.5050   36.7540    8.3220 C   0  0  0  0  0  0  0  0  0  0  0  0
    6.9580   37.8640    7.6530 C   0  0  0  0  0  0  0  0  0  0  0  0
    7.4630   39.1510    7.9070 C   0  0  0  0  0  0  0  0  0  0  0  0
    8.5130   39.3320    8.8270 C   0  0  0  0  0  0  0  0  0  0  0  0
    9.0750   38.2250    9.5100 C   0  0  0  0  0  0  0  0  0  0  0  0
    9.4600   41.3280   12.2570 C   0  0  0  0  0  0  0  0  0  0  0  0
    8.6830   42.0730   11.3470 C   0  0  0  0  0  0  0  0  0  0  0  0
    7.8040   43.0620   11.8220 C   0  0  0  0  0  0  0  0  0  0  0  0
    7.7050   43.3000   13.2030 C   0  0  0  0  0  0  0  0  0  0  0  0
    6.8570   44.2490   13.6670 F   0  0  0  0  0  0  0  0  0  0  0  0
    8.4870   42.5540   14.1060 C   0  0  0  0  0  0  0  0  0  0  0  0
    9.3860   41.5560   13.6580 C   0  0  0  0  0  0  0  0  0  0  0  0
   11.9025   34.8277   16.0797 H   0  0  0  0  0  0  0  0  0  0  0  0
   10.2940   34.9934   15.2973 H   0  0  0  0  0  0  0  0  0  0  0  0
   11.4396   36.3770   15.2973 H   0  0  0  0  0  0  0  0  0  0  0  0
    9.3941   35.8149   17.2100 H   0  0  0  0  0  0  0  0  0  0  0  0
   10.9504   35.4749   18.0356 H   0  0  0  0  0  0  0  0  0  0  0  0
   12.6217   39.2937   17.6937 H   0  0  0  0  0  0  0  0  0  0  0  0
   12.9395   38.3804   16.1799 H   0  0  0  0  0  0  0  0  0  0  0  0
   13.0201   40.1749   16.1799 H   0  0  0  0  0  0  0  0  0  0  0  0
    9.6289   40.8809   16.3237 H   0  0  0  0  0  0  0  0  0  0  0  0
   11.3358   41.4194   16.0101 H   0  0  0  0  0  0  0  0  0  0  0  0
   10.3075   40.4769    9.9874 H   0  0  0  0  0  0  0  0  0  0  0  0
   11.7999   39.6788   10.7036 H   0  0  0  0  0  0  0  0  0  0  0  0
   11.4770   37.3469   11.8145 H   0  0  0  0  0  0  0  0  0  0  0  0
   10.5505   35.0782   11.3389 H   0  0  0  0  0  0  0  0  0  0  0  0
    8.6842   34.8018    9.6940 H   0  0  0  0  0  0  0  0  0  0  0  0
    7.1110   35.7463    8.1240 H   0  0  0  0  0  0  0  0  0  0  0  0
    6.1377   37.7253    6.9334 H   0  0  0  0  0  0  0  0  0  0  0  0
    7.0361   40.0200    7.3849 H   0  0  0  0  0  0  0  0  0  0  0  0
    8.9013   40.3434    9.0177 H   0  0  0  0  0  0  0  0  0  0  0  0
    8.7643   41.8809   10.2670 H   0  0  0  0  0  0  0  0  0  0  0  0
    7.1965   43.6468   11.1156 H   0  0  0  0  0  0  0  0  0  0  0  0
    8.3973   42.7512   15.1844 H   0  0  0  0  0  0  0  0  0  0  0  0
  1  2  1  0
  2  3  1  0
  3  4  1  0
  4  5  2  0
  4  6  1  0
  6  7  1  0
  6  8  1  0
  8  9  1  0
  9 10  2  0
 10 11  1  0
 11 12  2  0
 11 13  1  0
 10 14  1  0
 14 15  1  0
 15 16  1  0
 16 17  2  0
 17 18  1  0
 18 19  2  0
 19 20  1  0
 20 21  2  0
 21 22  1  0
 22 23  2  0
 23 24  1  0
 24 25  2  0
 14 26  1  0
 26 27  2  0
 27 28  1  0
 28 29  2  0
 29 30  1  0
 29 31  1  0
 31 32  2  0
 32  9  1  0
 25 16  1  0
 32 26  1  0
 25 20  1  0
  1 33  1  0
  1 34  1  0
  1 35  1  0
  2 36  1  0
  2 37  1  0
  7 38  1  0
  7 39  1  0
  7 40  1  0
  8 41  1  0
  8 42  1  0
 15 43  1  0
 15 44  1  0
 17 45  1  0
 18 46  1  0
 19 47  1  0
 21 48  1  0
 22 49  1  0
 23 50  1  0
 24 51  1  0
 27 52  1  0
 28 53  1  0
 31 54  1  0
M  CHG  1  13  -1
M  END
>  <meeko>  (267) 
{"free_energy": -5.24, "intermolecular_energy": -7.63, "internal_energy": -1.94, "cluster_size": 47, "cluster_id": 29, "rank_in_cluster": 25}

$$$$

     RDKit          3D

 54 57  0  0  0  0  0  0  0  0999 V2000
   13.9630   38.7080   12.6440 C   0  0  0  0  0  0  0  0  0  0  0  0
   14.3320   39.6530   13.7910 C   0  0  0  0  0  0  0  0  0  0  0  0
   13.7830   40.9360   13.5340 O   0  0  0  0  0  0  0  0  0  0  0  0
   12.4680   41.1620   13.7380 C   0  0  0  0  0  0  0  0  0  0  0  0
   11.6450   40.2630   13.9140 O   0  0  0  0  0  0  0  0  0  0  0  0
   12.1990   42.5370   13.7270 N   0  0  0  0  0  0  0  0  0  0  0  0
   12.6300   43.4260   14.8120 C   0  0  0  0  0  0  0  0  0  0  0  0
   11.4400   43.1560   12.6320 C   0  0  0  0  0  0  0  0  0  0  0  0
   11.0340   42.1520   11.5780 C   0  0  0  0  0  0  0  0  0  0  0  0
    9.7640   41.7320   11.2240 C   0  0  0  0  0  0  0  0  0  0  0  0
    8.4340   42.1700   11.7510 C   0  0  0  0  0  0  0  0  0  0  0  0
    8.3930   43.1150   12.5670 O   0  0  0  0  0  0  0  0  0  0  0  0
    7.3860   41.5880   11.3950 O   0  0  0  0  0  1  0  0  0  0  0  0
    9.8750   40.7340   10.2330 N   0  0  0  0  0  0  0  0  0  0  0  0
    8.8020   40.0050    9.5500 C   0  0  0  0  0  0  0  0  0  0  0  0
    8.8450   38.4810    9.7250 C   0  0  0  0  0  0  0  0  0  0  0  0
    8.5180   37.6180    8.6500 C   0  0  0  0  0  0  0  0  0  0  0  0
    8.5560   36.2210    8.8050 C   0  0  0  0  0  0  0  0  0  0  0  0
    8.9190   35.6620   10.0410 C   0  0  0  0  0  0  0  0  0  0  0  0
    9.2460   36.4980   11.1250 C   0  0  0  0  0  0  0  0  0  0  0  0
    9.6080   35.9190   12.3580 C   0  0  0  0  0  0  0  0  0  0  0  0
    9.9390   36.7350   13.4550 C   0  0  0  0  0  0  0  0  0  0  0  0
    9.9080   38.1350   13.3190 C   0  0  0  0  0  0  0  0  0  0  0  0
    9.5470   38.7190   12.0900 C   0  0  0  0  0  0  0  0  0  0  0  0
    9.2110   37.9120   10.9750 C   0  0  0  0  0  0  0  0  0  0  0  0
   11.2180   40.5140    9.9530 C   0  0  0  0  0  0  0  0  0  0  0  0
   11.8590   39.6260    9.0650 C   0  0  0  0  0  0  0  0  0  0  0  0
   13.2610   39.6180    8.9730 C   0  0  0  0  0  0  0  0  0  0  0  0
   14.0160   40.4990    9.7670 C   0  0  0  0  0  0  0  0  0  0  0  0
   15.3680   40.4990    9.6810 F   0  0  0  0  0  0  0  0  0  0  0  0
   13.3680   41.3800   10.6540 C   0  0  0  0  0  0  0  0  0  0  0  0
   11.9580   41.4060   10.7740 C   0  0  0  0  0  0  0  0  0  0  0  0
   13.5921   37.7581   13.0564 H   0  0  0  0  0  0  0  0  0  0  0  0
   13.1793   39.1702   12.0258 H   0  0  0  0  0  0  0  0  0  0  0  0
   14.8525   38.5168   12.0258 H   0  0  0  0  0  0  0  0  0  0  0  0
   13.9258   39.2615   14.7353 H   0  0  0  0  0  0  0  0  0  0  0  0
   15.4266   39.7286   13.8697 H   0  0  0  0  0  0  0  0  0  0  0  0
   12.4032   42.9581   15.7814 H   0  0  0  0  0  0  0  0  0  0  0  0
   13.7131   43.6013   14.7340 H   0  0  0  0  0  0  0  0  0  0  0  0
   12.0968   44.3850   14.7340 H   0  0  0  0  0  0  0  0  0  0  0  0
   10.5330   43.6192   13.0477 H   0  0  0  0  0  0  0  0  0  0  0  0
   12.0889   43.9039   12.1529 H   0  0  0  0  0  0  0  0  0  0  0  0
    7.8398   40.3671    9.9412 H   0  0  0  0  0  0  0  0  0  0  0  0
    8.9339   40.1965    8.4749 H   0  0  0  0  0  0  0  0  0  0  0  0
    8.2299   38.0475    7.6791 H   0  0  0  0  0  0  0  0  0  0  0  0
    8.3015   35.5663    7.9585 H   0  0  0  0  0  0  0  0  0  0  0  0
    8.9478   34.5691   10.1622 H   0  0  0  0  0  0  0  0  0  0  0  0
    9.6318   34.8243   12.4629 H   0  0  0  0  0  0  0  0  0  0  0  0
   10.2211   36.2800   14.4159 H   0  0  0  0  0  0  0  0  0  0  0  0
   10.1666   38.7751   14.1754 H   0  0  0  0  0  0  0  0  0  0  0  0
    9.5255   39.8146   11.9942 H   0  0  0  0  0  0  0  0  0  0  0  0
   11.2624   38.9405    8.4452 H   0  0  0  0  0  0  0  0  0  0  0  0
   13.7655   38.9257    8.2830 H   0  0  0  0  0  0  0  0  0  0  0  0
   13.9719   42.0642   11.2682 H   0  0  0  0  0  0  0  0  0  0  0  0
  1  2  1  0
  2  3  1  0
  3  4  1  0
  4  5  2  0
  4  6  1  0
  6  7  1  0
  6  8  1  0
  8  9  1  0
  9 10  2  0
 10 11  1  0
 11 12  2  0
 11 13  1  0
 10 14  1  0
 14 15  1  0
 15 16  1  0
 16 17  2  0
 17 18  1  0
 18 19  2  0
 19 20  1  0
 20 21  2  0
 21 22  1  0
 22 23  2  0
 23 24  1  0
 24 25  2  0
 14 26  1  0
 26 27  2  0
 27 28  1  0
 28 29  2  0
 29 30  1  0
 29 31  1  0
 31 32  2  0
 32  9  1  0
 25 16  1  0
 32 26  1  0
 25 20  1  0
  1 33  1  0
  1 34  1  0
  1 35  1  0
  2 36  1  0
  2 37  1  0
  7 38  1  0
  7 39  1  0
  7 40  1  0
  8 41  1  0
  8 42  1  0
 15 43  1  0
 15 44  1  0
 17 45  1  0
 18 46  1  0
 19 47  1  0
 21 48  1  0
 22 49  1  0
 23 50  1  0
 24 51  1  0
 27 52  1  0
 28 53  1  0
 31 54  1  0
M  CHG  1  13  -1
M  END
>  <meeko>  (268) 
{"free_energy": -5.02, "intermolecular_energy": -7.41, "internal_energy": -2.49, "cluster_size": 210, "cluster_id": 15, "rank_in_cluster": 192}

$$$$

     RDKit          3D

 54 57  0  0  0  0  0  0  0  0999 V2000
   15.9340   43.0040   13.1660 C   0  0  0  0  0  0  0  0  0  0  0  0
   15.7370   41.5020   13.3810 C   0  0  0  0  0  0  0  0  0  0  0  0
   15.0820   41.2890   14.6210 O   0  0  0  0  0  0  0  0  0  0  0  0
   14.1100   42.1340   15.0270 C   0  0  0  0  0  0  0  0  0  0  0  0
   14.2390   42.9080   15.9760 O   0  0  0  0  0  0  0  0  0  0  0  0
   12.9730   41.9990   14.2200 N   0  0  0  0  0  0  0  0  0  0  0  0
   12.3240   43.1520   13.5870 C   0  0  0  0  0  0  0  0  0  0  0  0
   12.3540   40.6870   13.9890 C   0  0  0  0  0  0  0  0  0  0  0  0
   11.7800   40.5620   12.5980 C   0  0  0  0  0  0  0  0  0  0  0  0
   10.4940   40.8310   12.1630 C   0  0  0  0  0  0  0  0  0  0  0  0
    9.3190   41.3540   12.9280 C   0  0  0  0  0  0  0  0  0  0  0  0
    8.4280   41.9750   12.3090 O   0  0  0  0  0  0  0  0  0  0  0  0
    9.2390   41.1880   14.1640 O   0  0  0  0  0  1  0  0  0  0  0  0
   10.4000   40.5070   10.7930 N   0  0  0  0  0  0  0  0  0  0  0  0
    9.2410   40.6340    9.9050 C   0  0  0  0  0  0  0  0  0  0  0  0
    8.6380   39.3020    9.4380 C   0  0  0  0  0  0  0  0  0  0  0  0
    8.0470   39.1830    8.1550 C   0  0  0  0  0  0  0  0  0  0  0  0
    7.4930   37.9650    7.7230 C   0  0  0  0  0  0  0  0  0  0  0  0
    7.5180   36.8440    8.5680 C   0  0  0  0  0  0  0  0  0  0  0  0
    8.0970   36.9380    9.8480 C   0  0  0  0  0  0  0  0  0  0  0  0
    8.1120   35.8010   10.6830 C   0  0  0  0  0  0  0  0  0  0  0  0
    8.6850   35.8720   11.9650 C   0  0  0  0  0  0  0  0  0  0  0  0
    9.2460   37.0810   12.4150 C   0  0  0  0  0  0  0  0  0  0  0  0
    9.2330   38.2190   11.5860 C   0  0  0  0  0  0  0  0  0  0  0  0
    8.6600   38.1650   10.2920 C   0  0  0  0  0  0  0  0  0  0  0  0
   11.6270   40.0290   10.3510 C   0  0  0  0  0  0  0  0  0  0  0  0
   12.0540   39.5620    9.0900 C   0  0  0  0  0  0  0  0  0  0  0  0
   13.3810   39.1360    8.9140 C   0  0  0  0  0  0  0  0  0  0  0  0
   14.2760   39.1790    9.9970 C   0  0  0  0  0  0  0  0  0  0  0  0
   15.5580   38.7740    9.8330 F   0  0  0  0  0  0  0  0  0  0  0  0
   13.8410   39.6430   11.2540 C   0  0  0  0  0  0  0  0  0  0  0  0
   12.5080   40.0720   11.4640 C   0  0  0  0  0  0  0  0  0  0  0  0
   16.0002   43.5084   14.1413 H   0  0  0  0  0  0  0  0  0  0  0  0
   16.8623   43.1749   12.6011 H   0  0  0  0  0  0  0  0  0  0  0  0
   15.0812   43.4085   12.6011 H   0  0  0  0  0  0  0  0  0  0  0  0
   15.1233   41.0913   12.5657 H   0  0  0  0  0  0  0  0  0  0  0  0
   16.7152   40.9990   13.3892 H   0  0  0  0  0  0  0  0  0  0  0  0
   11.9422   43.8303   14.3643 H   0  0  0  0  0  0  0  0  0  0  0  0
   13.0542   43.6858   12.9610 H   0  0  0  0  0  0  0  0  0  0  0  0
   11.4889   42.8047   12.9610 H   0  0  0  0  0  0  0  0  0  0  0  0
   13.1164   39.9065   14.1287 H   0  0  0  0  0  0  0  0  0  0  0  0
   11.5275   40.5736   14.7059 H   0  0  0  0  0  0  0  0  0  0  0  0
    8.4600   41.1942   10.4400 H   0  0  0  0  0  0  0  0  0  0  0  0
    9.5996   41.1455    8.9996 H   0  0  0  0  0  0  0  0  0  0  0  0
    8.0214   40.0568    7.4873 H   0  0  0  0  0  0  0  0  0  0  0  0
    7.0401   37.8904    6.7233 H   0  0  0  0  0  0  0  0  0  0  0  0
    7.0847   35.8912    8.2296 H   0  0  0  0  0  0  0  0  0  0  0  0
    7.6740   34.8558   10.3299 H   0  0  0  0  0  0  0  0  0  0  0  0
    8.6946   34.9843   12.6145 H   0  0  0  0  0  0  0  0  0  0  0  0
    9.6960   37.1375   13.4172 H   0  0  0  0  0  0  0  0  0  0  0  0
    9.6727   39.1603   11.9474 H   0  0  0  0  0  0  0  0  0  0  0  0
   11.3490   39.5315    8.2461 H   0  0  0  0  0  0  0  0  0  0  0  0
   13.7182   38.7704    7.9329 H   0  0  0  0  0  0  0  0  0  0  0  0
   14.5533   39.6727   12.0917 H   0  0  0  0  0  0  0  0  0  0  0  0
  1  2  1  0
  2  3  1  0
  3  4  1  0
  4  5  2  0
  4  6  1  0
  6  7  1  0
  6  8  1  0
  8  9  1  0
  9 10  2  0
 10 11  1  0
 11 12  2  0
 11 13  1  0
 10 14  1  0
 14 15  1  0
 15 16  1  0
 16 17  2  0
 17 18  1  0
 18 19  2  0
 19 20  1  0
 20 21  2  0
 21 22  1  0
 22 23  2  0
 23 24  1  0
 24 25  2  0
 14 26  1  0
 26 27  2  0
 27 28  1  0
 28 29  2  0
 29 30  1  0
 29 31  1  0
 31 32  2  0
 32  9  1  0
 25 16  1  0
 32 26  1  0
 25 20  1  0
  1 33  1  0
  1 34  1  0
  1 35  1  0
  2 36  1  0
  2 37  1  0
  7 38  1  0
  7 39  1  0
  7 40  1  0
  8 41  1  0
  8 42  1  0
 15 43  1  0
 15 44  1  0
 17 45  1  0
 18 46  1  0
 19 47  1  0
 21 48  1  0
 22 49  1  0
 23 50  1  0
 24 51  1  0
 27 52  1  0
 28 53  1  0
 31 54  1  0
M  CHG  1  13  -1
M  END
>  <meeko>  (269) 
{"free_energy": -5.18, "intermolecular_energy": -7.57, "internal_energy": -1.88, "cluster_size": 167, "cluster_id": 22, "rank_in_cluster": 124}

$$$$

     RDKit          3D

 54 57  0  0  0  0  0  0  0  0999 V2000
   18.2570   39.9610    3.8830 C   0  0  0  0  0  0  0  0  0  0  0  0
   17.8490   39.7240    5.3390 C   0  0  0  0  0  0  0  0  0  0  0  0
   17.4070   40.9470    5.9050 O   0  0  0  0  0  0  0  0  0  0  0  0
   18.2750   41.7370    6.5730 C   0  0  0  0  0  0  0  0  0  0  0  0
   18.9790   42.5860    6.0240 O   0  0  0  0  0  0  0  0  0  0  0  0
   18.2450   41.4520    7.9440 N   0  0  0  0  0  0  0  0  0  0  0  0
   19.2600   40.6120    8.5890 C   0  0  0  0  0  0  0  0  0  0  0  0
   17.1680   41.9610    8.8040 C   0  0  0  0  0  0  0  0  0  0  0  0
   16.1360   40.9030    9.1170 C   0  0  0  0  0  0  0  0  0  0  0  0
   14.8970   40.7010    8.5340 C   0  0  0  0  0  0  0  0  0  0  0  0
   14.2380   41.4420    7.4140 C   0  0  0  0  0  0  0  0  0  0  0  0
   13.5200   42.4280    7.6870 O   0  0  0  0  0  0  0  0  0  0  0  0
   14.3880   41.0700    6.2300 O   0  0  0  0  0  1  0  0  0  0  0  0
   14.2540   39.6320    9.1930 N   0  0  0  0  0  0  0  0  0  0  0  0
   12.9350   39.0550    8.9190 C   0  0  0  0  0  0  0  0  0  0  0  0
   11.7540   39.8360    9.5090 C   0  0  0  0  0  0  0  0  0  0  0  0
   11.9220   41.1630    9.9770 C   0  0  0  0  0  0  0  0  0  0  0  0
   10.8430   41.8830   10.5180 C   0  0  0  0  0  0  0  0  0  0  0  0
    9.5750   41.2870   10.6050 C   0  0  0  0  0  0  0  0  0  0  0  0
    9.3820   39.9690   10.1490 C   0  0  0  0  0  0  0  0  0  0  0  0
    8.1010   39.3860   10.2440 C   0  0  0  0  0  0  0  0  0  0  0  0
    7.8860   38.0710    9.7950 C   0  0  0  0  0  0  0  0  0  0  0  0
    8.9530   37.3350    9.2490 C   0  0  0  0  0  0  0  0  0  0  0  0
   10.2340   37.9110    9.1520 C   0  0  0  0  0  0  0  0  0  0  0  0
   10.4690   39.2350    9.5990 C   0  0  0  0  0  0  0  0  0  0  0  0
   15.0820   39.1480   10.1980 C   0  0  0  0  0  0  0  0  0  0  0  0
   14.9110   38.1140   11.1410 C   0  0  0  0  0  0  0  0  0  0  0  0
   15.9350   37.8240   12.0570 C   0  0  0  0  0  0  0  0  0  0  0  0
   17.1280   38.5680   12.0270 C   0  0  0  0  0  0  0  0  0  0  0  0
   18.1210   38.2910   12.9050 F   0  0  0  0  0  0  0  0  0  0  0  0
   17.2900   39.6020   11.0850 C   0  0  0  0  0  0  0  0  0  0  0  0
   16.2730   39.9210   10.1530 C   0  0  0  0  0  0  0  0  0  0  0  0
   19.2078   40.5133    3.8539 H   0  0  0  0  0  0  0  0  0  0  0  0
   18.3793   38.9934    3.3743 H   0  0  0  0  0  0  0  0  0  0  0  0
   17.4771   40.5466    3.3743 H   0  0  0  0  0  0  0  0  0  0  0  0
   17.0347   38.9855    5.3772 H   0  0  0  0  0  0  0  0  0  0  0  0
   18.7111   39.3444    5.9070 H   0  0  0  0  0  0  0  0  0  0  0  0
   19.1624   40.6928    9.6817 H   0  0  0  0  0  0  0  0  0  0  0  0
   19.1167   39.5647    8.2845 H   0  0  0  0  0  0  0  0  0  0  0  0
   20.2620   40.9486    8.2845 H   0  0  0  0  0  0  0  0  0  0  0  0
   17.6071   42.3170    9.7476 H   0  0  0  0  0  0  0  0  0  0  0  0
   16.6624   42.7751    8.2640 H   0  0  0  0  0  0  0  0  0  0  0  0
   12.8026   39.0076    7.8280 H   0  0  0  0  0  0  0  0  0  0  0  0
   12.9239   38.0668    9.4020 H   0  0  0  0  0  0  0  0  0  0  0  0
   12.9127   41.6371    9.9159 H   0  0  0  0  0  0  0  0  0  0  0  0
   10.9921   42.9133   10.8732 H   0  0  0  0  0  0  0  0  0  0  0  0
    8.7312   41.8504   11.0299 H   0  0  0  0  0  0  0  0  0  0  0  0
    7.2670   39.9624   10.6710 H   0  0  0  0  0  0  0  0  0  0  0  0
    6.8860   37.6191    9.8706 H   0  0  0  0  0  0  0  0  0  0  0  0
    8.7861   36.3064    8.8968 H   0  0  0  0  0  0  0  0  0  0  0  0
   11.0619   37.3265    8.7243 H   0  0  0  0  0  0  0  0  0  0  0  0
   13.9760   37.5348   11.1592 H   0  0  0  0  0  0  0  0  0  0  0  0
   15.8046   37.0185   12.7947 H   0  0  0  0  0  0  0  0  0  0  0  0
   18.2287   40.1754   11.0729 H   0  0  0  0  0  0  0  0  0  0  0  0
  1  2  1  0
  2  3  1  0
  3  4  1  0
  4  5  2  0
  4  6  1  0
  6  7  1  0
  6  8  1  0
  8  9  1  0
  9 10  2  0
 10 11  1  0
 11 12  2  0
 11 13  1  0
 10 14  1  0
 14 15  1  0
 15 16  1  0
 16 17  2  0
 17 18  1  0
 18 19  2  0
 19 20  1  0
 20 21  2  0
 21 22  1  0
 22 23  2  0
 23 24  1  0
 24 25  2  0
 14 26  1  0
 26 27  2  0
 27 28  1  0
 28 29  2  0
 29 30  1  0
 29 31  1  0
 31 32  2  0
 32  9  1  0
 25 16  1  0
 32 26  1  0
 25 20  1  0
  1 33  1  0
  1 34  1  0
  1 35  1  0
  2 36  1  0
  2 37  1  0
  7 38  1  0
  7 39  1  0
  7 40  1  0
  8 41  1  0
  8 42  1  0
 15 43  1  0
 15 44  1  0
 17 45  1  0
 18 46  1  0
 19 47  1  0
 21 48  1  0
 22 49  1  0
 23 50  1  0
 24 51  1  0
 27 52  1  0
 28 53  1  0
 31 54  1  0
M  CHG  1  13  -1
M  END
>  <meeko>  (270) 
{"free_energy": -5.54, "intermolecular_energy": -7.92, "internal_energy": -1.7, "cluster_size": 14, "cluster_id": 95, "rank_in_cluster": 4}

$$$$

     RDKit          3D

 54 57  0  0  0  0  0  0  0  0999 V2000
    9.9550   34.7200   14.5130 C   0  0  0  0  0  0  0  0  0  0  0  0
    8.9640   35.4810   13.6290 C   0  0  0  0  0  0  0  0  0  0  0  0
    9.6540   36.0280   12.5170 O   0  0  0  0  0  0  0  0  0  0  0  0
    9.4100   37.2970   12.1260 C   0  0  0  0  0  0  0  0  0  0  0  0
    9.3260   38.2430   12.9100 O   0  0  0  0  0  0  0  0  0  0  0  0
    9.2780   37.3650   10.7330 N   0  0  0  0  0  0  0  0  0  0  0  0
    7.9690   37.4500   10.0760 C   0  0  0  0  0  0  0  0  0  0  0  0
   10.4550   37.3260    9.8540 C   0  0  0  0  0  0  0  0  0  0  0  0
   11.3960   38.4810   10.1060 C   0  0  0  0  0  0  0  0  0  0  0  0
   11.1050   39.8300   10.2090 C   0  0  0  0  0  0  0  0  0  0  0  0
    9.7840   40.5290   10.1370 C   0  0  0  0  0  0  0  0  0  0  0  0
    9.0350   40.2970    9.1640 O   0  0  0  0  0  0  0  0  0  0  0  0
    9.4460   41.3440   11.0230 O   0  0  0  0  0  1  0  0  0  0  0  0
   12.3110   40.5420   10.3840 N   0  0  0  0  0  0  0  0  0  0  0  0
   12.4990   41.9870   10.5500 C   0  0  0  0  0  0  0  0  0  0  0  0
   12.6590   42.7700    9.2400 C   0  0  0  0  0  0  0  0  0  0  0  0
   12.2220   42.2220    8.0080 C   0  0  0  0  0  0  0  0  0  0  0  0
   12.3660   42.9360    6.8060 C   0  0  0  0  0  0  0  0  0  0  0  0
   12.9530   44.2120    6.8130 C   0  0  0  0  0  0  0  0  0  0  0  0
   13.3960   44.7770    8.0240 C   0  0  0  0  0  0  0  0  0  0  0  0
   13.9840   46.0590    8.0120 C   0  0  0  0  0  0  0  0  0  0  0  0
   14.4340   46.6430    9.2090 C   0  0  0  0  0  0  0  0  0  0  0  0
   14.2980   45.9450   10.4220 C   0  0  0  0  0  0  0  0  0  0  0  0
   13.7130   44.6650   10.4410 C   0  0  0  0  0  0  0  0  0  0  0  0
   13.2530   44.0610    9.2440 C   0  0  0  0  0  0  0  0  0  0  0  0
   13.3740   39.6490   10.3930 C   0  0  0  0  0  0  0  0  0  0  0  0
   14.7640   39.8440   10.5210 C   0  0  0  0  0  0  0  0  0  0  0  0
   15.6310   38.7390   10.5040 C   0  0  0  0  0  0  0  0  0  0  0  0
   15.1050   37.4430   10.3620 C   0  0  0  0  0  0  0  0  0  0  0  0
   15.9360   36.3730   10.3500 F   0  0  0  0  0  0  0  0  0  0  0  0
   13.7160   37.2560   10.2320 C   0  0  0  0  0  0  0  0  0  0  0  0
   12.8180   38.3510   10.2370 C   0  0  0  0  0  0  0  0  0  0  0  0
    9.7173   34.9025   15.5714 H   0  0  0  0  0  0  0  0  0  0  0  0
    9.8829   33.6429   14.3015 H   0  0  0  0  0  0  0  0  0  0  0  0
   10.9770   35.0676   14.3015 H   0  0  0  0  0  0  0  0  0  0  0  0
    8.1832   34.7920   13.2746 H   0  0  0  0  0  0  0  0  0  0  0  0
    8.4984   36.2912   14.2094 H   0  0  0  0  0  0  0  0  0  0  0  0
    7.1784   37.5013   10.8391 H   0  0  0  0  0  0  0  0  0  0  0  0
    7.9318   38.3525    9.4482 H   0  0  0  0  0  0  0  0  0  0  0  0
    7.8154   36.5599    9.4482 H   0  0  0  0  0  0  0  0  0  0  0  0
   10.9959   36.3842   10.0284 H   0  0  0  0  0  0  0  0  0  0  0  0
   10.1021   37.3994    8.8147 H   0  0  0  0  0  0  0  0  0  0  0  0
   11.6238   42.3869   11.0829 H   0  0  0  0  0  0  0  0  0  0  0  0
   13.4406   42.1150   11.1042 H   0  0  0  0  0  0  0  0  0  0  0  0
   11.7631   41.2224    7.9924 H   0  0  0  0  0  0  0  0  0  0  0  0
   12.0190   42.4955    5.8597 H   0  0  0  0  0  0  0  0  0  0  0  0
   13.0666   44.7701    5.8719 H   0  0  0  0  0  0  0  0  0  0  0  0
   14.0909   46.6039    7.0625 H   0  0  0  0  0  0  0  0  0  0  0  0
   14.8913   47.6434    9.1967 H   0  0  0  0  0  0  0  0  0  0  0  0
   14.6500   46.4008   11.3592 H   0  0  0  0  0  0  0  0  0  0  0  0
   13.6117   44.1274   11.3953 H   0  0  0  0  0  0  0  0  0  0  0  0
   15.1694   40.8603   10.6341 H   0  0  0  0  0  0  0  0  0  0  0  0
   16.7166   38.8870   10.6014 H   0  0  0  0  0  0  0  0  0  0  0  0
   13.3189   36.2359   10.1240 H   0  0  0  0  0  0  0  0  0  0  0  0
  1  2  1  0
  2  3  1  0
  3  4  1  0
  4  5  2  0
  4  6  1  0
  6  7  1  0
  6  8  1  0
  8  9  1  0
  9 10  2  0
 10 11  1  0
 11 12  2  0
 11 13  1  0
 10 14  1  0
 14 15  1  0
 15 16  1  0
 16 17  2  0
 17 18  1  0
 18 19  2  0
 19 20  1  0
 20 21  2  0
 21 22  1  0
 22 23  2  0
 23 24  1  0
 24 25  2  0
 14 26  1  0
 26 27  2  0
 27 28  1  0
 28 29  2  0
 29 30  1  0
 29 31  1  0
 31 32  2  0
 32  9  1  0
 25 16  1  0
 32 26  1  0
 25 20  1  0
  1 33  1  0
  1 34  1  0
  1 35  1  0
  2 36  1  0
  2 37  1  0
  7 38  1  0
  7 39  1  0
  7 40  1  0
  8 41  1  0
  8 42  1  0
 15 43  1  0
 15 44  1  0
 17 45  1  0
 18 46  1  0
 19 47  1  0
 21 48  1  0
 22 49  1  0
 23 50  1  0
 24 51  1  0
 27 52  1  0
 28 53  1  0
 31 54  1  0
M  CHG  1  13  -1
M  END
>  <meeko>  (271) 
{"free_energy": -4.12, "intermolecular_energy": -6.5, "internal_energy": -1.8, "cluster_size": 13, "cluster_id": 74, "rank_in_cluster": 11}

$$$$

     RDKit          3D

 54 57  0  0  0  0  0  0  0  0999 V2000
    7.7930   35.1350    7.7930 C   0  0  0  0  0  0  0  0  0  0  0  0
    7.9070   36.6130    8.1740 C   0  0  0  0  0  0  0  0  0  0  0  0
    9.0270   36.7910    9.0260 O   0  0  0  0  0  0  0  0  0  0  0  0
    8.9930   36.3290   10.2940 C   0  0  0  0  0  0  0  0  0  0  0  0
    8.0130   35.7630   10.7830 O   0  0  0  0  0  0  0  0  0  0  0  0
   10.2090   36.5800   10.9420 N   0  0  0  0  0  0  0  0  0  0  0  0
   10.3150   36.6500   12.4040 C   0  0  0  0  0  0  0  0  0  0  0  0
   11.4430   36.8180   10.1810 C   0  0  0  0  0  0  0  0  0  0  0  0
   11.8690   38.2660   10.2200 C   0  0  0  0  0  0  0  0  0  0  0  0
   13.1430   38.7980   10.1200 C   0  0  0  0  0  0  0  0  0  0  0  0
   14.4520   38.1050    9.9120 C   0  0  0  0  0  0  0  0  0  0  0  0
   14.8750   37.9570    8.7450 O   0  0  0  0  0  0  0  0  0  0  0  0
   15.1010   37.6640   10.8860 O   0  0  0  0  0  1  0  0  0  0  0  0
   13.0640   40.1990   10.2740 N   0  0  0  0  0  0  0  0  0  0  0  0
   14.1500   41.1820   10.2330 C   0  0  0  0  0  0  0  0  0  0  0  0
   15.0880   41.0570    9.0250 C   0  0  0  0  0  0  0  0  0  0  0  0
   14.5720   41.0420    7.7050 C   0  0  0  0  0  0  0  0  0  0  0  0
   15.4280   40.9280    6.5950 C   0  0  0  0  0  0  0  0  0  0  0  0
   16.8150   40.8250    6.7850 C   0  0  0  0  0  0  0  0  0  0  0  0
   17.3510   40.8350    8.0870 C   0  0  0  0  0  0  0  0  0  0  0  0
   18.7470   40.7300    8.2590 C   0  0  0  0  0  0  0  0  0  0  0  0
   19.3040   40.7380    9.5500 C   0  0  0  0  0  0  0  0  0  0  0  0
   18.4660   40.8520   10.6730 C   0  0  0  0  0  0  0  0  0  0  0  0
   17.0710   40.9570   10.5080 C   0  0  0  0  0  0  0  0  0  0  0  0
   16.4930   40.9510    9.2140 C   0  0  0  0  0  0  0  0  0  0  0  0
   11.7380   40.5630   10.4720 C   0  0  0  0  0  0  0  0  0  0  0  0
   11.1310   41.8180   10.6900 C   0  0  0  0  0  0  0  0  0  0  0  0
    9.7390   41.9030   10.8540 C   0  0  0  0  0  0  0  0  0  0  0  0
    8.9580   40.7350   10.8000 C   0  0  0  0  0  0  0  0  0  0  0  0
    7.6150   40.8110   10.9550 F   0  0  0  0  0  0  0  0  0  0  0  0
    9.5720   39.4860   10.5870 C   0  0  0  0  0  0  0  0  0  0  0  0
   10.9740   39.3670   10.4240 C   0  0  0  0  0  0  0  0  0  0  0  0
    7.7458   34.5235    8.7062 H   0  0  0  0  0  0  0  0  0  0  0  0
    6.8801   34.9787    7.1995 H   0  0  0  0  0  0  0  0  0  0  0  0
    8.6711   34.8406    7.1995 H   0  0  0  0  0  0  0  0  0  0  0  0
    8.0369   37.2182    7.2647 H   0  0  0  0  0  0  0  0  0  0  0  0
    6.9923   36.9314    8.6954 H   0  0  0  0  0  0  0  0  0  0  0  0
    9.4793   36.0981   12.8591 H   0  0  0  0  0  0  0  0  0  0  0  0
   11.2675   36.2027   12.7244 H   0  0  0  0  0  0  0  0  0  0  0  0
   10.2776   37.7016   12.7244 H   0  0  0  0  0  0  0  0  0  0  0  0
   12.2470   36.2009   10.6085 H   0  0  0  0  0  0  0  0  0  0  0  0
   11.2481   36.5523    9.1315 H   0  0  0  0  0  0  0  0  0  0  0  0
   13.7016   42.1863   10.2152 H   0  0  0  0  0  0  0  0  0  0  0  0
   14.7677   40.9973   11.1242 H   0  0  0  0  0  0  0  0  0  0  0  0
   13.4863   41.1207    7.5465 H   0  0  0  0  0  0  0  0  0  0  0  0
   15.0104   40.9195    5.5774 H   0  0  0  0  0  0  0  0  0  0  0  0
   17.4837   40.7364    5.9161 H   0  0  0  0  0  0  0  0  0  0  0  0
   19.4023   40.6415    7.3800 H   0  0  0  0  0  0  0  0  0  0  0  0
   20.3930   40.6552    9.6810 H   0  0  0  0  0  0  0  0  0  0  0  0
   18.9009   40.8592   11.6834 H   0  0  0  0  0  0  0  0  0  0  0  0
   16.4234   41.0446   11.3929 H   0  0  0  0  0  0  0  0  0  0  0  0
   11.7472   42.7283   10.7314 H   0  0  0  0  0  0  0  0  0  0  0  0
    9.2615   42.8793   11.0240 H   0  0  0  0  0  0  0  0  0  0  0  0
    8.9480   38.5810   10.5462 H   0  0  0  0  0  0  0  0  0  0  0  0
  1  2  1  0
  2  3  1  0
  3  4  1  0
  4  5  2  0
  4  6  1  0
  6  7  1  0
  6  8  1  0
  8  9  1  0
  9 10  2  0
 10 11  1  0
 11 12  2  0
 11 13  1  0
 10 14  1  0
 14 15  1  0
 15 16  1  0
 16 17  2  0
 17 18  1  0
 18 19  2  0
 19 20  1  0
 20 21  2  0
 21 22  1  0
 22 23  2  0
 23 24  1  0
 24 25  2  0
 14 26  1  0
 26 27  2  0
 27 28  1  0
 28 29  2  0
 29 30  1  0
 29 31  1  0
 31 32  2  0
 32  9  1  0
 25 16  1  0
 32 26  1  0
 25 20  1  0
  1 33  1  0
  1 34  1  0
  1 35  1  0
  2 36  1  0
  2 37  1  0
  7 38  1  0
  7 39  1  0
  7 40  1  0
  8 41  1  0
  8 42  1  0
 15 43  1  0
 15 44  1  0
 17 45  1  0
 18 46  1  0
 19 47  1  0
 21 48  1  0
 22 49  1  0
 23 50  1  0
 24 51  1  0
 27 52  1  0
 28 53  1  0
 31 54  1  0
M  CHG  1  13  -1
M  END
>  <meeko>  (272) 
{"free_energy": -4.97, "intermolecular_energy": -7.35, "internal_energy": -1.89, "cluster_size": 12, "cluster_id": 60, "rank_in_cluster": 10}

$$$$

     RDKit          3D

 54 57  0  0  0  0  0  0  0  0999 V2000
   12.5020   39.4990   13.3770 C   0  0  0  0  0  0  0  0  0  0  0  0
   12.3930   41.0130   13.1760 C   0  0  0  0  0  0  0  0  0  0  0  0
   11.1540   41.4650   13.6980 O   0  0  0  0  0  0  0  0  0  0  0  0
    9.9960   40.9420   13.2410 C   0  0  0  0  0  0  0  0  0  0  0  0
    9.5310   39.8740   13.6420 O   0  0  0  0  0  0  0  0  0  0  0  0
    9.4240   41.7810   12.2760 N   0  0  0  0  0  0  0  0  0  0  0  0
    8.8610   43.0920   12.6160 C   0  0  0  0  0  0  0  0  0  0  0  0
    9.3340   41.3710   10.8680 C   0  0  0  0  0  0  0  0  0  0  0  0
   10.3720   40.3360   10.5050 C   0  0  0  0  0  0  0  0  0  0  0  0
   11.6000   40.5170    9.8920 C   0  0  0  0  0  0  0  0  0  0  0  0
   12.2660   41.7800    9.4460 C   0  0  0  0  0  0  0  0  0  0  0  0
   12.5090   42.6630   10.2960 O   0  0  0  0  0  0  0  0  0  0  0  0
   12.5570   41.9550    8.2420 O   0  0  0  0  0  1  0  0  0  0  0  0
   12.2000   39.2540    9.6960 N   0  0  0  0  0  0  0  0  0  0  0  0
   13.5010   38.9490    9.0960 C   0  0  0  0  0  0  0  0  0  0  0  0
   14.5080   38.2820   10.0430 C   0  0  0  0  0  0  0  0  0  0  0  0
   14.7390   36.8850    9.9900 C   0  0  0  0  0  0  0  0  0  0  0  0
   15.6600   36.2700   10.8560 C   0  0  0  0  0  0  0  0  0  0  0  0
   16.3660   37.0410   11.7920 C   0  0  0  0  0  0  0  0  0  0  0  0
   16.1530   38.4310   11.8660 C   0  0  0  0  0  0  0  0  0  0  0  0
   16.8710   39.1900   12.8130 C   0  0  0  0  0  0  0  0  0  0  0  0
   16.6740   40.5790   12.9040 C   0  0  0  0  0  0  0  0  0  0  0  0
   15.7570   41.2130   12.0460 C   0  0  0  0  0  0  0  0  0  0  0  0
   15.0370   40.4610   11.0990 C   0  0  0  0  0  0  0  0  0  0  0  0
   15.2230   39.0600   10.9930 C   0  0  0  0  0  0  0  0  0  0  0  0
   11.3550   38.2650   10.1830 C   0  0  0  0  0  0  0  0  0  0  0  0
   11.4750   36.8610   10.2170 C   0  0  0  0  0  0  0  0  0  0  0  0
   10.4530   36.0840   10.7890 C   0  0  0  0  0  0  0  0  0  0  0  0
    9.3170   36.7140   11.3260 C   0  0  0  0  0  0  0  0  0  0  0  0
    8.3310   35.9720   11.8830 F   0  0  0  0  0  0  0  0  0  0  0  0
    9.2040   38.1170   11.2860 C   0  0  0  0  0  0  0  0  0  0  0  0
   10.2130   38.9260   10.7100 C   0  0  0  0  0  0  0  0  0  0  0  0
   12.5183   39.2722   14.4532 H   0  0  0  0  0  0  0  0  0  0  0  0
   11.6372   39.0041   12.9111 H   0  0  0  0  0  0  0  0  0  0  0  0
   13.4288   39.1330   12.9111 H   0  0  0  0  0  0  0  0  0  0  0  0
   13.2187   41.5143   13.7022 H   0  0  0  0  0  0  0  0  0  0  0  0
   12.4497   41.2483   12.1030 H   0  0  0  0  0  0  0  0  0  0  0  0
    8.8151   43.1988   13.7098 H   0  0  0  0  0  0  0  0  0  0  0  0
    9.4981   43.8846   12.1966 H   0  0  0  0  0  0  0  0  0  0  0  0
    7.8476   43.1758   12.1966 H   0  0  0  0  0  0  0  0  0  0  0  0
    8.3347   40.9489   10.6857 H   0  0  0  0  0  0  0  0  0  0  0  0
    9.5139   42.2605   10.2463 H   0  0  0  0  0  0  0  0  0  0  0  0
   13.3345   38.2740    8.2435 H   0  0  0  0  0  0  0  0  0  0  0  0
   13.9417   39.9145    8.8068 H   0  0  0  0  0  0  0  0  0  0  0  0
   14.1894   36.2724    9.2602 H   0  0  0  0  0  0  0  0  0  0  0  0
   15.8272   35.1842   10.7998 H   0  0  0  0  0  0  0  0  0  0  0  0
   17.0868   36.5590   12.4688 H   0  0  0  0  0  0  0  0  0  0  0  0
   17.5881   38.6933   13.4832 H   0  0  0  0  0  0  0  0  0  0  0  0
   17.2353   41.1684   13.6440 H   0  0  0  0  0  0  0  0  0  0  0  0
   15.6022   42.2998   12.1155 H   0  0  0  0  0  0  0  0  0  0  0  0
   14.3217   40.9664   10.4335 H   0  0  0  0  0  0  0  0  0  0  0  0
   12.3672   36.3741    9.7965 H   0  0  0  0  0  0  0  0  0  0  0  0
   10.5417   34.9879   10.8163 H   0  0  0  0  0  0  0  0  0  0  0  0
    8.3103   38.5959   11.7125 H   0  0  0  0  0  0  0  0  0  0  0  0
  1  2  1  0
  2  3  1  0
  3  4  1  0
  4  5  2  0
  4  6  1  0
  6  7  1  0
  6  8  1  0
  8  9  1  0
  9 10  2  0
 10 11  1  0
 11 12  2  0
 11 13  1  0
 10 14  1  0
 14 15  1  0
 15 16  1  0
 16 17  2  0
 17 18  1  0
 18 19  2  0
 19 20  1  0
 20 21  2  0
 21 22  1  0
 22 23  2  0
 23 24  1  0
 24 25  2  0
 14 26  1  0
 26 27  2  0
 27 28  1  0
 28 29  2  0
 29 30  1  0
 29 31  1  0
 31 32  2  0
 32  9  1  0
 25 16  1  0
 32 26  1  0
 25 20  1  0
  1 33  1  0
  1 34  1  0
  1 35  1  0
  2 36  1  0
  2 37  1  0
  7 38  1  0
  7 39  1  0
  7 40  1  0
  8 41  1  0
  8 42  1  0
 15 43  1  0
 15 44  1  0
 17 45  1  0
 18 46  1  0
 19 47  1  0
 21 48  1  0
 22 49  1  0
 23 50  1  0
 24 51  1  0
 27 52  1  0
 28 53  1  0
 31 54  1  0
M  CHG  1  13  -1
M  END
>  <meeko>  (273) 
{"free_energy": -4.18, "intermolecular_energy": -6.56, "internal_energy": -2.99, "cluster_size": 35, "cluster_id": 184, "rank_in_cluster": 21}

$$$$

     RDKit          3D

 54 57  0  0  0  0  0  0  0  0999 V2000
   14.8250   36.2420    9.9080 C   0  0  0  0  0  0  0  0  0  0  0  0
   15.2670   37.7070    9.9330 C   0  0  0  0  0  0  0  0  0  0  0  0
   16.1180   37.9190   11.0480 O   0  0  0  0  0  0  0  0  0  0  0  0
   16.0890   39.0970   11.7070 C   0  0  0  0  0  0  0  0  0  0  0  0
   17.0940   39.7740   11.9280 O   0  0  0  0  0  0  0  0  0  0  0  0
   14.7780   39.4190   12.0800 N   0  0  0  0  0  0  0  0  0  0  0  0
   13.9480   38.5100   12.8780 C   0  0  0  0  0  0  0  0  0  0  0  0
   14.1560   40.6820   11.6630 C   0  0  0  0  0  0  0  0  0  0  0  0
   12.6500   40.6440   11.7790 C   0  0  0  0  0  0  0  0  0  0  0  0
   11.7190   40.2220   10.8460 C   0  0  0  0  0  0  0  0  0  0  0  0
   11.9300   39.6530    9.4790 C   0  0  0  0  0  0  0  0  0  0  0  0
   12.2950   40.4170    8.5600 O   0  0  0  0  0  0  0  0  0  0  0  0
   11.7250   38.4390    9.2550 O   0  0  0  0  0  1  0  0  0  0  0  0
   10.4250   40.4280   11.3700 N   0  0  0  0  0  0  0  0  0  0  0  0
    9.1320   40.1240   10.7500 C   0  0  0  0  0  0  0  0  0  0  0  0
    8.8810   38.6350   10.4800 C   0  0  0  0  0  0  0  0  0  0  0  0
    9.2770   37.6500   11.4190 C   0  0  0  0  0  0  0  0  0  0  0  0
    9.0480   36.2840   11.1750 C   0  0  0  0  0  0  0  0  0  0  0  0
    8.4210   35.8780    9.9870 C   0  0  0  0  0  0  0  0  0  0  0  0
    8.0200   36.8370    9.0380 C   0  0  0  0  0  0  0  0  0  0  0  0
    7.3910   36.4110    7.8490 C   0  0  0  0  0  0  0  0  0  0  0  0
    6.9820   37.3520    6.8870 C   0  0  0  0  0  0  0  0  0  0  0  0
    7.2010   38.7220    7.1120 C   0  0  0  0  0  0  0  0  0  0  0  0
    7.8280   39.1540    8.2960 C   0  0  0  0  0  0  0  0  0  0  0  0
    8.2460   38.2210    9.2770 C   0  0  0  0  0  0  0  0  0  0  0  0
   10.5280   40.9840   12.6390 C   0  0  0  0  0  0  0  0  0  0  0  0
    9.5490   41.3880   13.5700 C   0  0  0  0  0  0  0  0  0  0  0  0
    9.9400   41.9220   14.8090 C   0  0  0  0  0  0  0  0  0  0  0  0
   11.3060   42.0480   15.1150 C   0  0  0  0  0  0  0  0  0  0  0  0
   11.6890   42.5580   16.3090 F   0  0  0  0  0  0  0  0  0  0  0  0
   12.2780   41.6450   14.1780 C   0  0  0  0  0  0  0  0  0  0  0  0
   11.9150   41.1100   12.9180 C   0  0  0  0  0  0  0  0  0  0  0  0
   14.7142   35.8748   10.9390 H   0  0  0  0  0  0  0  0  0  0  0  0
   13.8617   36.1585    9.3835 H   0  0  0  0  0  0  0  0  0  0  0  0
   15.5814   35.6397    9.3835 H   0  0  0  0  0  0  0  0  0  0  0  0
   15.8098   37.9433    9.0059 H   0  0  0  0  0  0  0  0  0  0  0  0
   14.3839   38.3579   10.0133 H   0  0  0  0  0  0  0  0  0  0  0  0
   14.1209   38.6994   13.9477 H   0  0  0  0  0  0  0  0  0  0  0  0
   12.8871   38.6801   12.6424 H   0  0  0  0  0  0  0  0  0  0  0  0
   14.2136   37.4689   12.6424 H   0  0  0  0  0  0  0  0  0  0  0  0
   14.5397   41.4927   12.2998 H   0  0  0  0  0  0  0  0  0  0  0  0
   14.4084   40.8489   10.6054 H   0  0  0  0  0  0  0  0  0  0  0  0
    8.3381   40.4890   11.4182 H   0  0  0  0  0  0  0  0  0  0  0  0
    9.1358   40.6199    9.7681 H   0  0  0  0  0  0  0  0  0  0  0  0
    9.7707   37.9585   12.3523 H   0  0  0  0  0  0  0  0  0  0  0  0
    9.3606   35.5334   11.9158 H   0  0  0  0  0  0  0  0  0  0  0  0
    8.2427   34.8092    9.7973 H   0  0  0  0  0  0  0  0  0  0  0  0
    7.2198   35.3386    7.6737 H   0  0  0  0  0  0  0  0  0  0  0  0
    6.4920   37.0166    5.9610 H   0  0  0  0  0  0  0  0  0  0  0  0
    6.8814   39.4590    6.3605 H   0  0  0  0  0  0  0  0  0  0  0  0
    7.9954   40.2285    8.4615 H   0  0  0  0  0  0  0  0  0  0  0  0
    8.4812   41.2852   13.3265 H   0  0  0  0  0  0  0  0  0  0  0  0
    9.1797   42.2405   15.5373 H   0  0  0  0  0  0  0  0  0  0  0  0
   13.3435   41.7483   14.4310 H   0  0  0  0  0  0  0  0  0  0  0  0
  1  2  1  0
  2  3  1  0
  3  4  1  0
  4  5  2  0
  4  6  1  0
  6  7  1  0
  6  8  1  0
  8  9  1  0
  9 10  2  0
 10 11  1  0
 11 12  2  0
 11 13  1  0
 10 14  1  0
 14 15  1  0
 15 16  1  0
 16 17  2  0
 17 18  1  0
 18 19  2  0
 19 20  1  0
 20 21  2  0
 21 22  1  0
 22 23  2  0
 23 24  1  0
 24 25  2  0
 14 26  1  0
 26 27  2  0
 27 28  1  0
 28 29  2  0
 29 30  1  0
 29 31  1  0
 31 32  2  0
 32  9  1  0
 25 16  1  0
 32 26  1  0
 25 20  1  0
  1 33  1  0
  1 34  1  0
  1 35  1  0
  2 36  1  0
  2 37  1  0
  7 38  1  0
  7 39  1  0
  7 40  1  0
  8 41  1  0
  8 42  1  0
 15 43  1  0
 15 44  1  0
 17 45  1  0
 18 46  1  0
 19 47  1  0
 21 48  1  0
 22 49  1  0
 23 50  1  0
 24 51  1  0
 27 52  1  0
 28 53  1  0
 31 54  1  0
M  CHG  1  13  -1
M  END
>  <meeko>  (274) 
{"free_energy": -5.78, "intermolecular_energy": -8.17, "internal_energy": -2.04, "cluster_size": 417, "cluster_id": 2, "rank_in_cluster": 310}

$$$$

     RDKit          3D

 54 57  0  0  0  0  0  0  0  0999 V2000
   11.9740   42.0040    9.3800 C   0  0  0  0  0  0  0  0  0  0  0  0
   12.0940   42.3170   10.8740 C   0  0  0  0  0  0  0  0  0  0  0  0
   12.5800   41.1710   11.5540 O   0  0  0  0  0  0  0  0  0  0  0  0
   13.6020   40.4590   11.0330 C   0  0  0  0  0  0  0  0  0  0  0  0
   14.4430   40.9380   10.2700 O   0  0  0  0  0  0  0  0  0  0  0  0
   13.5600   39.1340   11.4880 N   0  0  0  0  0  0  0  0  0  0  0  0
   13.9390   38.0040   10.6330 C   0  0  0  0  0  0  0  0  0  0  0  0
   13.1020   38.8090   12.8450 C   0  0  0  0  0  0  0  0  0  0  0  0
   11.7700   38.0960   12.8440 C   0  0  0  0  0  0  0  0  0  0  0  0
   10.9210   37.8460   11.7800 C   0  0  0  0  0  0  0  0  0  0  0  0
   11.0880   38.1750   10.3300 C   0  0  0  0  0  0  0  0  0  0  0  0
   11.1170   39.3760    9.9860 O   0  0  0  0  0  0  0  0  0  0  0  0
   11.1760   37.2650    9.4770 O   0  0  0  0  0  1  0  0  0  0  0  0
    9.7610   37.2060   12.2650 N   0  0  0  0  0  0  0  0  0  0  0  0
    8.5940   36.7420   11.5090 C   0  0  0  0  0  0  0  0  0  0  0  0
    8.2930   37.5390   10.2330 C   0  0  0  0  0  0  0  0  0  0  0  0
    8.2950   38.9570   10.2450 C   0  0  0  0  0  0  0  0  0  0  0  0
    8.0200   39.6910    9.0780 C   0  0  0  0  0  0  0  0  0  0  0  0
    7.7370   39.0210    7.8770 C   0  0  0  0  0  0  0  0  0  0  0  0
    7.7280   37.6130    7.8400 C   0  0  0  0  0  0  0  0  0  0  0  0
    7.4410   36.9570    6.6250 C   0  0  0  0  0  0  0  0  0  0  0  0
    7.4260   35.5520    6.5650 C   0  0  0  0  0  0  0  0  0  0  0  0
    7.6990   34.8000    7.7210 C   0  0  0  0  0  0  0  0  0  0  0  0
    7.9850   35.4490    8.9370 C   0  0  0  0  0  0  0  0  0  0  0  0
    8.0050   36.8640    9.0160 C   0  0  0  0  0  0  0  0  0  0  0  0
    9.8670   37.0460   13.6400 C   0  0  0  0  0  0  0  0  0  0  0  0
    8.9890   36.4880   14.5920 C   0  0  0  0  0  0  0  0  0  0  0  0
    9.3590   36.4460   15.9470 C   0  0  0  0  0  0  0  0  0  0  0  0
   10.6050   36.9600   16.3450 C   0  0  0  0  0  0  0  0  0  0  0  0
   10.9690   36.9190   17.6490 F   0  0  0  0  0  0  0  0  0  0  0  0
   11.4750   37.5190   15.3890 C   0  0  0  0  0  0  0  0  0  0  0  0
   11.1270   37.5820   14.0180 C   0  0  0  0  0  0  0  0  0  0  0  0
   11.5830   40.9842    9.2493 H   0  0  0  0  0  0  0  0  0  0  0  0
   11.2878   42.7230    8.9087 H   0  0  0  0  0  0  0  0  0  0  0  0
   12.9650   42.0800    8.9087 H   0  0  0  0  0  0  0  0  0  0  0  0
   12.7922   43.1545   11.0193 H   0  0  0  0  0  0  0  0  0  0  0  0
   11.1070   42.5926   11.2739 H   0  0  0  0  0  0  0  0  0  0  0  0
   14.2260   37.1484   11.2620 H   0  0  0  0  0  0  0  0  0  0  0  0
   13.0861   37.7225    9.9979 H   0  0  0  0  0  0  0  0  0  0  0  0
   14.7892   38.2937    9.9979 H   0  0  0  0  0  0  0  0  0  0  0  0
   13.8500   38.1610   13.3253 H   0  0  0  0  0  0  0  0  0  0  0  0
   12.9780   39.7540   13.3942 H   0  0  0  0  0  0  0  0  0  0  0  0
    8.7659   35.6934   11.2245 H   0  0  0  0  0  0  0  0  0  0  0  0
    7.7247   36.8768   12.1695 H   0  0  0  0  0  0  0  0  0  0  0  0
    8.5150   39.4906   11.1814 H   0  0  0  0  0  0  0  0  0  0  0  0
    8.0265   40.7906    9.1058 H   0  0  0  0  0  0  0  0  0  0  0  0
    7.5221   39.5961    6.9643 H   0  0  0  0  0  0  0  0  0  0  0  0
    7.2281   37.5464    5.7210 H   0  0  0  0  0  0  0  0  0  0  0  0
    7.2013   35.0429    5.6162 H   0  0  0  0  0  0  0  0  0  0  0  0
    7.6891   33.7010    7.6752 H   0  0  0  0  0  0  0  0  0  0  0  0
    8.1953   34.8512    9.8361 H   0  0  0  0  0  0  0  0  0  0  0  0
    8.0156   36.0861   14.2743 H   0  0  0  0  0  0  0  0  0  0  0  0
    8.6764   36.0127   16.6929 H   0  0  0  0  0  0  0  0  0  0  0  0
   12.4477   37.9160   15.7151 H   0  0  0  0  0  0  0  0  0  0  0  0
  1  2  1  0
  2  3  1  0
  3  4  1  0
  4  5  2  0
  4  6  1  0
  6  7  1  0
  6  8  1  0
  8  9  1  0
  9 10  2  0
 10 11  1  0
 11 12  2  0
 11 13  1  0
 10 14  1  0
 14 15  1  0
 15 16  1  0
 16 17  2  0
 17 18  1  0
 18 19  2  0
 19 20  1  0
 20 21  2  0
 21 22  1  0
 22 23  2  0
 23 24  1  0
 24 25  2  0
 14 26  1  0
 26 27  2  0
 27 28  1  0
 28 29  2  0
 29 30  1  0
 29 31  1  0
 31 32  2  0
 32  9  1  0
 25 16  1  0
 32 26  1  0
 25 20  1  0
  1 33  1  0
  1 34  1  0
  1 35  1  0
  2 36  1  0
  2 37  1  0
  7 38  1  0
  7 39  1  0
  7 40  1  0
  8 41  1  0
  8 42  1  0
 15 43  1  0
 15 44  1  0
 17 45  1  0
 18 46  1  0
 19 47  1  0
 21 48  1  0
 22 49  1  0
 23 50  1  0
 24 51  1  0
 27 52  1  0
 28 53  1  0
 31 54  1  0
M  CHG  1  13  -1
M  END
>  <meeko>  (275) 
{"free_energy": -6.31, "intermolecular_energy": -8.7, "internal_energy": -1.01, "cluster_size": 292, "cluster_id": 10, "rank_in_cluster": 109}

$$$$

     RDKit          3D

 54 57  0  0  0  0  0  0  0  0999 V2000
   10.2460   41.5030   11.9300 C   0  0  0  0  0  0  0  0  0  0  0  0
   10.8250   42.6860   12.7110 C   0  0  0  0  0  0  0  0  0  0  0  0
   12.2320   42.7190   12.5340 O   0  0  0  0  0  0  0  0  0  0  0  0
   13.0360   42.0420   13.3810 C   0  0  0  0  0  0  0  0  0  0  0  0
   12.8690   42.0190   14.6020 O   0  0  0  0  0  0  0  0  0  0  0  0
   14.0530   41.3860   12.6750 N   0  0  0  0  0  0  0  0  0  0  0  0
   14.8680   42.0710   11.6650 C   0  0  0  0  0  0  0  0  0  0  0  0
   14.3350   39.9610   12.8930 C   0  0  0  0  0  0  0  0  0  0  0  0
   13.1360   39.0900   12.6020 C   0  0  0  0  0  0  0  0  0  0  0  0
   12.8360   38.3860   11.4490 C   0  0  0  0  0  0  0  0  0  0  0  0
   13.6180   38.2560   10.1800 C   0  0  0  0  0  0  0  0  0  0  0  0
   14.3500   37.2540   10.0260 O   0  0  0  0  0  0  0  0  0  0  0  0
   13.5550   39.1410    9.3000 O   0  0  0  0  0  1  0  0  0  0  0  0
   11.5790   37.7640   11.6100 N   0  0  0  0  0  0  0  0  0  0  0  0
   10.8580   36.9100   10.6630 C   0  0  0  0  0  0  0  0  0  0  0  0
    9.7680   37.6240    9.8510 C   0  0  0  0  0  0  0  0  0  0  0  0
    9.6780   39.0380    9.8440 C   0  0  0  0  0  0  0  0  0  0  0  0
    8.6820   39.6960    9.1020 C   0  0  0  0  0  0  0  0  0  0  0  0
    7.7550   38.9510    8.3560 C   0  0  0  0  0  0  0  0  0  0  0  0
    7.8220   37.5450    8.3490 C   0  0  0  0  0  0  0  0  0  0  0  0
    6.8820   36.8130    7.5940 C   0  0  0  0  0  0  0  0  0  0  0  0
    6.9300   35.4080    7.5720 C   0  0  0  0  0  0  0  0  0  0  0  0
    7.9200   34.7310    8.3070 C   0  0  0  0  0  0  0  0  0  0  0  0
    8.8610   35.4560    9.0630 C   0  0  0  0  0  0  0  0  0  0  0  0
    8.8270   36.8720    9.0960 C   0  0  0  0  0  0  0  0  0  0  0  0
   11.0750   38.0710   12.8670 C   0  0  0  0  0  0  0  0  0  0  0  0
    9.8690   37.7180   13.5080 C   0  0  0  0  0  0  0  0  0  0  0  0
    9.6120   38.1680   14.8140 C   0  0  0  0  0  0  0  0  0  0  0  0
   10.5600   38.9670   15.4750 C   0  0  0  0  0  0  0  0  0  0  0  0
   10.3200   39.4010   16.7350 F   0  0  0  0  0  0  0  0  0  0  0  0
   11.7610   39.3180   14.8270 C   0  0  0  0  0  0  0  0  0  0  0  0
   12.0450   38.8860   13.5090 C   0  0  0  0  0  0  0  0  0  0  0  0
    9.8748   40.7446   12.6350 H   0  0  0  0  0  0  0  0  0  0  0  0
    9.4169   41.8521   11.2970 H   0  0  0  0  0  0  0  0  0  0  0  0
   11.0303   41.0624   11.2970 H   0  0  0  0  0  0  0  0  0  0  0  0
   10.3854   43.6230   12.3385 H   0  0  0  0  0  0  0  0  0  0  0  0
   10.5899   42.5734   13.7797 H   0  0  0  0  0  0  0  0  0  0  0  0
   15.6180   42.7014   12.1650 H   0  0  0  0  0  0  0  0  0  0  0  0
   15.3763   41.3250   11.0364 H   0  0  0  0  0  0  0  0  0  0  0  0
   14.2206   42.7001   11.0364 H   0  0  0  0  0  0  0  0  0  0  0  0
   15.1610   39.6585   12.2325 H   0  0  0  0  0  0  0  0  0  0  0  0
   14.5994   39.8278   13.9524 H   0  0  0  0  0  0  0  0  0  0  0  0
   11.5892   36.4885    9.9575 H   0  0  0  0  0  0  0  0  0  0  0  0
   10.3444   36.1459   11.2650 H   0  0  0  0  0  0  0  0  0  0  0  0
   10.3984   39.6296   10.4280 H   0  0  0  0  0  0  0  0  0  0  0  0
    8.6289   40.7947    9.1058 H   0  0  0  0  0  0  0  0  0  0  0  0
    6.9753   39.4667    7.7762 H   0  0  0  0  0  0  0  0  0  0  0  0
    6.1081   37.3436    7.0200 H   0  0  0  0  0  0  0  0  0  0  0  0
    6.1957   34.8400    6.9819 H   0  0  0  0  0  0  0  0  0  0  0  0
    7.9592   33.6318    8.2911 H   0  0  0  0  0  0  0  0  0  0  0  0
    9.6311   34.9170    9.6343 H   0  0  0  0  0  0  0  0  0  0  0  0
    9.1308   37.0913   12.9861 H   0  0  0  0  0  0  0  0  0  0  0  0
    8.6723   37.8958   15.3169 H   0  0  0  0  0  0  0  0  0  0  0  0
   12.4950   39.9422   15.3576 H   0  0  0  0  0  0  0  0  0  0  0  0
  1  2  1  0
  2  3  1  0
  3  4  1  0
  4  5  2  0
  4  6  1  0
  6  7  1  0
  6  8  1  0
  8  9  1  0
  9 10  2  0
 10 11  1  0
 11 12  2  0
 11 13  1  0
 10 14  1  0
 14 15  1  0
 15 16  1  0
 16 17  2  0
 17 18  1  0
 18 19  2  0
 19 20  1  0
 20 21  2  0
 21 22  1  0
 22 23  2  0
 23 24  1  0
 24 25  2  0
 14 26  1  0
 26 27  2  0
 27 28  1  0
 28 29  2  0
 29 30  1  0
 29 31  1  0
 31 32  2  0
 32  9  1  0
 25 16  1  0
 32 26  1  0
 25 20  1  0
  1 33  1  0
  1 34  1  0
  1 35  1  0
  2 36  1  0
  2 37  1  0
  7 38  1  0
  7 39  1  0
  7 40  1  0
  8 41  1  0
  8 42  1  0
 15 43  1  0
 15 44  1  0
 17 45  1  0
 18 46  1  0
 19 47  1  0
 21 48  1  0
 22 49  1  0
 23 50  1  0
 24 51  1  0
 27 52  1  0
 28 53  1  0
 31 54  1  0
M  CHG  1  13  -1
M  END
>  <meeko>  (276) 
{"free_energy": -5.42, "intermolecular_energy": -7.8, "internal_energy": -2.37, "cluster_size": 42, "cluster_id": 46, "rank_in_cluster": 21}

$$$$

     RDKit          3D

 54 57  0  0  0  0  0  0  0  0999 V2000
   15.2210   37.9680    9.2150 C   0  0  0  0  0  0  0  0  0  0  0  0
   15.3910   39.4550    9.5390 C   0  0  0  0  0  0  0  0  0  0  0  0
   14.1750   40.1340    9.2680 O   0  0  0  0  0  0  0  0  0  0  0  0
   12.9990   39.4760    9.3570 C   0  0  0  0  0  0  0  0  0  0  0  0
   12.2620   39.2720    8.3910 O   0  0  0  0  0  0  0  0  0  0  0  0
   12.7610   39.0710   10.6770 N   0  0  0  0  0  0  0  0  0  0  0  0
   12.5640   37.6620   11.0360 C   0  0  0  0  0  0  0  0  0  0  0  0
   12.6680   40.0480   11.7690 C   0  0  0  0  0  0  0  0  0  0  0  0
   12.5430   39.3850   13.1210 C   0  0  0  0  0  0  0  0  0  0  0  0
   11.3960   39.0890   13.8370 C   0  0  0  0  0  0  0  0  0  0  0  0
    9.9610   39.3050   13.4730 C   0  0  0  0  0  0  0  0  0  0  0  0
    9.4620   38.6090   12.5620 O   0  0  0  0  0  0  0  0  0  0  0  0
    9.2800   40.1760   14.0560 O   0  0  0  0  0  1  0  0  0  0  0  0
   11.7680   38.5290   15.0780 N   0  0  0  0  0  0  0  0  0  0  0  0
   10.9010   38.0540   16.1600 C   0  0  0  0  0  0  0  0  0  0  0  0
   10.1570   36.7450   15.8620 C   0  0  0  0  0  0  0  0  0  0  0  0
   10.5420   35.9230   14.7730 C   0  0  0  0  0  0  0  0  0  0  0  0
    9.8640   34.7230   14.4970 C   0  0  0  0  0  0  0  0  0  0  0  0
    8.7850   34.3250   15.3030 C   0  0  0  0  0  0  0  0  0  0  0  0
    8.3830   35.1250   16.3890 C   0  0  0  0  0  0  0  0  0  0  0  0
    7.2970   34.7090   17.1870 C   0  0  0  0  0  0  0  0  0  0  0  0
    6.8780   35.4930   18.2770 C   0  0  0  0  0  0  0  0  0  0  0  0
    7.5440   36.6960   18.5710 C   0  0  0  0  0  0  0  0  0  0  0  0
    8.6280   37.1170   17.7770 C   0  0  0  0  0  0  0  0  0  0  0  0
    9.0640   36.3390   16.6760 C   0  0  0  0  0  0  0  0  0  0  0  0
   13.1540   38.4670   15.1550 C   0  0  0  0  0  0  0  0  0  0  0  0
   14.0190   38.0120   16.1720 C   0  0  0  0  0  0  0  0  0  0  0  0
   15.4100   38.0560   15.9800 C   0  0  0  0  0  0  0  0  0  0  0  0
   15.9310   38.5520   14.7720 C   0  0  0  0  0  0  0  0  0  0  0  0
   17.2710   38.5940   14.5790 F   0  0  0  0  0  0  0  0  0  0  0  0
   15.0610   39.0080   13.7630 C   0  0  0  0  0  0  0  0  0  0  0  0
   13.6550   38.9830   13.9300 C   0  0  0  0  0  0  0  0  0  0  0  0
   15.1554   37.3940   10.1510 H   0  0  0  0  0  0  0  0  0  0  0  0
   14.3004   37.8230    8.6306 H   0  0  0  0  0  0  0  0  0  0  0  0
   16.0851   37.6189    8.6306 H   0  0  0  0  0  0  0  0  0  0  0  0
   15.6490   39.5727   10.6018 H   0  0  0  0  0  0  0  0  0  0  0  0
   16.1961   39.8781    8.9203 H   0  0  0  0  0  0  0  0  0  0  0  0
   12.5499   37.5612   12.1313 H   0  0  0  0  0  0  0  0  0  0  0  0
   11.6077   37.3086   10.6229 H   0  0  0  0  0  0  0  0  0  0  0  0
   13.3867   37.0599   10.6229 H   0  0  0  0  0  0  0  0  0  0  0  0
   13.5736   40.6724   11.7634 H   0  0  0  0  0  0  0  0  0  0  0  0
   11.7633   40.6518   11.6048 H   0  0  0  0  0  0  0  0  0  0  0  0
   11.5233   37.8980   17.0535 H   0  0  0  0  0  0  0  0  0  0  0  0
   10.1282   38.8245   16.2980 H   0  0  0  0  0  0  0  0  0  0  0  0
   11.3839   36.2288   14.1345 H   0  0  0  0  0  0  0  0  0  0  0  0
   10.1785   34.0958   13.6498 H   0  0  0  0  0  0  0  0  0  0  0  0
    8.2534   33.3869   15.0853 H   0  0  0  0  0  0  0  0  0  0  0  0
    6.7759   33.7682   16.9561 H   0  0  0  0  0  0  0  0  0  0  0  0
    6.0312   35.1658   18.8981 H   0  0  0  0  0  0  0  0  0  0  0  0
    7.2174   37.3098   19.4234 H   0  0  0  0  0  0  0  0  0  0  0  0
    9.1420   38.0602   18.0141 H   0  0  0  0  0  0  0  0  0  0  0  0
   13.6050   37.6233   17.1141 H   0  0  0  0  0  0  0  0  0  0  0  0
   16.0884   37.7040   16.7711 H   0  0  0  0  0  0  0  0  0  0  0  0
   15.4835   39.3927   12.8230 H   0  0  0  0  0  0  0  0  0  0  0  0
  1  2  1  0
  2  3  1  0
  3  4  1  0
  4  5  2  0
  4  6  1  0
  6  7  1  0
  6  8  1  0
  8  9  1  0
  9 10  2  0
 10 11  1  0
 11 12  2  0
 11 13  1  0
 10 14  1  0
 14 15  1  0
 15 16  1  0
 16 17  2  0
 17 18  1  0
 18 19  2  0
 19 20  1  0
 20 21  2  0
 21 22  1  0
 22 23  2  0
 23 24  1  0
 24 25  2  0
 14 26  1  0
 26 27  2  0
 27 28  1  0
 28 29  2  0
 29 30  1  0
 29 31  1  0
 31 32  2  0
 32  9  1  0
 25 16  1  0
 32 26  1  0
 25 20  1  0
  1 33  1  0
  1 34  1  0
  1 35  1  0
  2 36  1  0
  2 37  1  0
  7 38  1  0
  7 39  1  0
  7 40  1  0
  8 41  1  0
  8 42  1  0
 15 43  1  0
 15 44  1  0
 17 45  1  0
 18 46  1  0
 19 47  1  0
 21 48  1  0
 22 49  1  0
 23 50  1  0
 24 51  1  0
 27 52  1  0
 28 53  1  0
 31 54  1  0
M  CHG  1  13  -1
M  END
>  <meeko>  (277) 
{"free_energy": -4.69, "intermolecular_energy": -7.08, "internal_energy": -1.81, "cluster_size": 30, "cluster_id": 91, "rank_in_cluster": 20}

$$$$

     RDKit          3D

 54 57  0  0  0  0  0  0  0  0999 V2000
   12.5680   42.5920    7.6810 C   0  0  0  0  0  0  0  0  0  0  0  0
   13.0130   41.6070    8.7640 C   0  0  0  0  0  0  0  0  0  0  0  0
   12.1280   41.6980    9.8700 O   0  0  0  0  0  0  0  0  0  0  0  0
   12.5350   42.2870   11.0140 C   0  0  0  0  0  0  0  0  0  0  0  0
   11.8570   43.1130   11.6290 O   0  0  0  0  0  0  0  0  0  0  0  0
   13.8030   41.8210   11.3840 N   0  0  0  0  0  0  0  0  0  0  0  0
   15.0020   42.6610   11.2860 C   0  0  0  0  0  0  0  0  0  0  0  0
   14.0000   40.4470   11.8650 C   0  0  0  0  0  0  0  0  0  0  0  0
   12.6940   39.7680   12.2050 C   0  0  0  0  0  0  0  0  0  0  0  0
   11.9710   38.8550   11.4560 C   0  0  0  0  0  0  0  0  0  0  0  0
   12.2840   38.2550   10.1220 C   0  0  0  0  0  0  0  0  0  0  0  0
   13.2420   37.4570   10.0330 O   0  0  0  0  0  0  0  0  0  0  0  0
   11.6130   38.5610    9.1130 O   0  0  0  0  0  1  0  0  0  0  0  0
   10.7810   38.5420   12.1470 N   0  0  0  0  0  0  0  0  0  0  0  0
    9.7140   37.6190   11.7510 C   0  0  0  0  0  0  0  0  0  0  0  0
    8.9780   38.0010   10.4600 C   0  0  0  0  0  0  0  0  0  0  0  0
    8.9160   39.3500   10.0310 C   0  0  0  0  0  0  0  0  0  0  0  0
    8.2430   39.7040    8.8490 C   0  0  0  0  0  0  0  0  0  0  0  0
    7.6170   38.7150    8.0740 C   0  0  0  0  0  0  0  0  0  0  0  0
    7.6630   37.3680    8.4790 C   0  0  0  0  0  0  0  0  0  0  0  0
    7.0290   36.3870    7.6890 C   0  0  0  0  0  0  0  0  0  0  0  0
    7.0610   35.0350    8.0740 C   0  0  0  0  0  0  0  0  0  0  0  0
    7.7300   34.6610    9.2530 C   0  0  0  0  0  0  0  0  0  0  0  0
    8.3650   35.6350   10.0470 C   0  0  0  0  0  0  0  0  0  0  0  0
    8.3430   37.0010    9.6730 C   0  0  0  0  0  0  0  0  0  0  0  0
   10.7430   39.2540   13.3390 C   0  0  0  0  0  0  0  0  0  0  0  0
    9.7820   39.3110   14.3690 C   0  0  0  0  0  0  0  0  0  0  0  0
   10.0050   40.1270   15.4910 C   0  0  0  0  0  0  0  0  0  0  0  0
   11.1880   40.8810   15.5800 C   0  0  0  0  0  0  0  0  0  0  0  0
   11.4100   41.6660   16.6610 F   0  0  0  0  0  0  0  0  0  0  0  0
   12.1410   40.8210   14.5460 C   0  0  0  0  0  0  0  0  0  0  0  0
   11.9410   40.0140   13.4000 C   0  0  0  0  0  0  0  0  0  0  0  0
   12.1591   43.4970    8.1541 H   0  0  0  0  0  0  0  0  0  0  0  0
   13.4310   42.8633    7.0552 H   0  0  0  0  0  0  0  0  0  0  0  0
   11.7940   42.1238    7.0552 H   0  0  0  0  0  0  0  0  0  0  0  0
   12.9940   40.5837    8.3609 H   0  0  0  0  0  0  0  0  0  0  0  0
   14.0355   41.8511    9.0879 H   0  0  0  0  0  0  0  0  0  0  0  0
   15.3584   42.9107   12.2963 H   0  0  0  0  0  0  0  0  0  0  0  0
   15.7886   42.1155   10.7441 H   0  0  0  0  0  0  0  0  0  0  0  0
   14.7579   43.5866   10.7441 H   0  0  0  0  0  0  0  0  0  0  0  0
   14.5072   39.8664   11.0804 H   0  0  0  0  0  0  0  0  0  0  0  0
   14.6047   40.4942   12.7827 H   0  0  0  0  0  0  0  0  0  0  0  0
   10.1585   36.6228   11.6093 H   0  0  0  0  0  0  0  0  0  0  0  0
    8.9641   37.6497   12.5552 H   0  0  0  0  0  0  0  0  0  0  0  0
    9.4021   40.1323   10.6324 H   0  0  0  0  0  0  0  0  0  0  0  0
    8.2068   40.7564    8.5311 H   0  0  0  0  0  0  0  0  0  0  0  0
    7.0901   38.9931    7.1493 H   0  0  0  0  0  0  0  0  0  0  0  0
    6.5066   36.6810    6.7667 H   0  0  0  0  0  0  0  0  0  0  0  0
    6.5646   34.2728    7.4553 H   0  0  0  0  0  0  0  0  0  0  0  0
    7.7573   33.6039    9.5560 H   0  0  0  0  0  0  0  0  0  0  0  0
    8.8841   35.3317   10.9682 H   0  0  0  0  0  0  0  0  0  0  0  0
    8.8589   38.7175   14.2944 H   0  0  0  0  0  0  0  0  0  0  0  0
    9.2571   40.1755   16.2962 H   0  0  0  0  0  0  0  0  0  0  0  0
   13.0629   41.4151   14.6302 H   0  0  0  0  0  0  0  0  0  0  0  0
  1  2  1  0
  2  3  1  0
  3  4  1  0
  4  5  2  0
  4  6  1  0
  6  7  1  0
  6  8  1  0
  8  9  1  0
  9 10  2  0
 10 11  1  0
 11 12  2  0
 11 13  1  0
 10 14  1  0
 14 15  1  0
 15 16  1  0
 16 17  2  0
 17 18  1  0
 18 19  2  0
 19 20  1  0
 20 21  2  0
 21 22  1  0
 22 23  2  0
 23 24  1  0
 24 25  2  0
 14 26  1  0
 26 27  2  0
 27 28  1  0
 28 29  2  0
 29 30  1  0
 29 31  1  0
 31 32  2  0
 32  9  1  0
 25 16  1  0
 32 26  1  0
 25 20  1  0
  1 33  1  0
  1 34  1  0
  1 35  1  0
  2 36  1  0
  2 37  1  0
  7 38  1  0
  7 39  1  0
  7 40  1  0
  8 41  1  0
  8 42  1  0
 15 43  1  0
 15 44  1  0
 17 45  1  0
 18 46  1  0
 19 47  1  0
 21 48  1  0
 22 49  1  0
 23 50  1  0
 24 51  1  0
 27 52  1  0
 28 53  1  0
 31 54  1  0
M  CHG  1  13  -1
M  END
>  <meeko>  (278) 
{"free_energy": -5.8, "intermolecular_energy": -8.19, "internal_energy": -2.16, "cluster_size": 61, "cluster_id": 70, "rank_in_cluster": 3}

$$$$

     RDKit          3D

 54 57  0  0  0  0  0  0  0  0999 V2000
   12.6880   42.9040   10.1590 C   0  0  0  0  0  0  0  0  0  0  0  0
   13.6770   42.1860   11.0810 C   0  0  0  0  0  0  0  0  0  0  0  0
   13.4850   42.6360   12.4130 O   0  0  0  0  0  0  0  0  0  0  0  0
   12.5610   42.0450   13.2000 C   0  0  0  0  0  0  0  0  0  0  0  0
   12.1200   42.5580   14.2300 O   0  0  0  0  0  0  0  0  0  0  0  0
   12.1900   40.8010   12.6730 N   0  0  0  0  0  0  0  0  0  0  0  0
   13.0950   39.6470   12.6850 C   0  0  0  0  0  0  0  0  0  0  0  0
   10.8740   40.5990   12.0520 C   0  0  0  0  0  0  0  0  0  0  0  0
   10.1690   39.3760   12.5900 C   0  0  0  0  0  0  0  0  0  0  0  0
    9.8220   39.0800   13.8960 C   0  0  0  0  0  0  0  0  0  0  0  0
   10.0090   39.8910   15.1400 C   0  0  0  0  0  0  0  0  0  0  0  0
   10.1820   41.1240   15.0320 O   0  0  0  0  0  0  0  0  0  0  0  0
   10.0110   39.3420   16.2630 O   0  0  0  0  0  1  0  0  0  0  0  0
    9.2360   37.7960   13.9310 N   0  0  0  0  0  0  0  0  0  0  0  0
    8.7070   37.0680   15.0880 C   0  0  0  0  0  0  0  0  0  0  0  0
    9.4860   35.8010   15.4640 C   0  0  0  0  0  0  0  0  0  0  0  0
    8.8580   34.5310   15.4490 C   0  0  0  0  0  0  0  0  0  0  0  0
    9.5680   33.3680   15.7930 C   0  0  0  0  0  0  0  0  0  0  0  0
   10.9200   33.4540   16.1610 C   0  0  0  0  0  0  0  0  0  0  0  0
   11.5660   34.7040   16.1860 C   0  0  0  0  0  0  0  0  0  0  0  0
   12.9250   34.7720   16.5590 C   0  0  0  0  0  0  0  0  0  0  0  0
   13.5900   36.0100   16.5910 C   0  0  0  0  0  0  0  0  0  0  0  0
   12.8970   37.1850   16.2490 C   0  0  0  0  0  0  0  0  0  0  0  0
   11.5410   37.1250   15.8760 C   0  0  0  0  0  0  0  0  0  0  0  0
   10.8550   35.8850   15.8380 C   0  0  0  0  0  0  0  0  0  0  0  0
    9.2090   37.2710   12.6460 C   0  0  0  0  0  0  0  0  0  0  0  0
    8.7490   36.0350   12.1460 C   0  0  0  0  0  0  0  0  0  0  0  0
    8.8360   35.7600   10.7710 C   0  0  0  0  0  0  0  0  0  0  0  0
    9.3800   36.7200    9.9010 C   0  0  0  0  0  0  0  0  0  0  0  0
    9.4630   36.4630    8.5740 F   0  0  0  0  0  0  0  0  0  0  0  0
    9.8420   37.9500   10.4090 C   0  0  0  0  0  0  0  0  0  0  0  0
    9.7740   38.2540   11.7900 C   0  0  0  0  0  0  0  0  0  0  0  0
   11.9457   43.4429   10.7661 H   0  0  0  0  0  0  0  0  0  0  0  0
   13.2315   43.6193    9.5242 H   0  0  0  0  0  0  0  0  0  0  0  0
   12.1762   42.1657    9.5242 H   0  0  0  0  0  0  0  0  0  0  0  0
   13.5050   41.1007   11.0310 H   0  0  0  0  0  0  0  0  0  0  0  0
   14.7063   42.4061   10.7616 H   0  0  0  0  0  0  0  0  0  0  0  0
   13.3160   39.3652   13.7251 H   0  0  0  0  0  0  0  0  0  0  0  0
   12.6171   38.8009   12.1695 H   0  0  0  0  0  0  0  0  0  0  0  0
   14.0306   39.9094   12.1695 H   0  0  0  0  0  0  0  0  0  0  0  0
   10.2499   41.4830   12.2497 H   0  0  0  0  0  0  0  0  0  0  0  0
   11.0296   40.4510   10.9732 H   0  0  0  0  0  0  0  0  0  0  0  0
    8.7194   37.7465   15.9537 H   0  0  0  0  0  0  0  0  0  0  0  0
    7.6956   36.7374   14.8090 H   0  0  0  0  0  0  0  0  0  0  0  0
    7.7984   34.4541   15.1637 H   0  0  0  0  0  0  0  0  0  0  0  0
    9.0643   32.3903   15.7739 H   0  0  0  0  0  0  0  0  0  0  0  0
   11.4751   32.5433   16.4301 H   0  0  0  0  0  0  0  0  0  0  0  0
   13.4664   33.8524   16.8259 H   0  0  0  0  0  0  0  0  0  0  0  0
   14.6495   36.0596   16.8827 H   0  0  0  0  0  0  0  0  0  0  0  0
   13.4164   38.1543   16.2731 H   0  0  0  0  0  0  0  0  0  0  0  0
   11.0080   38.0501   15.6112 H   0  0  0  0  0  0  0  0  0  0  0  0
    8.3229   35.2876   12.8314 H   0  0  0  0  0  0  0  0  0  0  0  0
    8.4796   34.7968   10.3770 H   0  0  0  0  0  0  0  0  0  0  0  0
   10.2657   38.6919    9.7161 H   0  0  0  0  0  0  0  0  0  0  0  0
  1  2  1  0
  2  3  1  0
  3  4  1  0
  4  5  2  0
  4  6  1  0
  6  7  1  0
  6  8  1  0
  8  9  1  0
  9 10  2  0
 10 11  1  0
 11 12  2  0
 11 13  1  0
 10 14  1  0
 14 15  1  0
 15 16  1  0
 16 17  2  0
 17 18  1  0
 18 19  2  0
 19 20  1  0
 20 21  2  0
 21 22  1  0
 22 23  2  0
 23 24  1  0
 24 25  2  0
 14 26  1  0
 26 27  2  0
 27 28  1  0
 28 29  2  0
 29 30  1  0
 29 31  1  0
 31 32  2  0
 32  9  1  0
 25 16  1  0
 32 26  1  0
 25 20  1  0
  1 33  1  0
  1 34  1  0
  1 35  1  0
  2 36  1  0
  2 37  1  0
  7 38  1  0
  7 39  1  0
  7 40  1  0
  8 41  1  0
  8 42  1  0
 15 43  1  0
 15 44  1  0
 17 45  1  0
 18 46  1  0
 19 47  1  0
 21 48  1  0
 22 49  1  0
 23 50  1  0
 24 51  1  0
 27 52  1  0
 28 53  1  0
 31 54  1  0
M  CHG  1  13  -1
M  END
>  <meeko>  (279) 
{"free_energy": -4.62, "intermolecular_energy": -7.0, "internal_energy": -1.71, "cluster_size": 130, "cluster_id": 32, "rank_in_cluster": 122}

$$$$

     RDKit          3D

 54 57  0  0  0  0  0  0  0  0999 V2000
    8.1740   41.3340   11.1710 C   0  0  0  0  0  0  0  0  0  0  0  0
    8.7270   40.6910    9.8960 C   0  0  0  0  0  0  0  0  0  0  0  0
    9.9860   40.1000   10.1790 O   0  0  0  0  0  0  0  0  0  0  0  0
   11.0730   40.8790   10.3620 C   0  0  0  0  0  0  0  0  0  0  0  0
   11.0110   42.0530   10.7320 O   0  0  0  0  0  0  0  0  0  0  0  0
   12.2440   40.1630   10.0810 N   0  0  0  0  0  0  0  0  0  0  0  0
   12.9010   40.2260    8.7710 C   0  0  0  0  0  0  0  0  0  0  0  0
   12.8590   39.2840   11.0850 C   0  0  0  0  0  0  0  0  0  0  0  0
   11.8340   38.6490   11.9950 C   0  0  0  0  0  0  0  0  0  0  0  0
   10.8890   37.6830   11.6950 C   0  0  0  0  0  0  0  0  0  0  0  0
   10.6320   36.9680   10.4060 C   0  0  0  0  0  0  0  0  0  0  0  0
   10.7430   37.6020    9.3350 O   0  0  0  0  0  0  0  0  0  0  0  0
   10.2930   35.7640   10.4030 O   0  0  0  0  0  1  0  0  0  0  0  0
   10.1060   37.4420   12.8440 N   0  0  0  0  0  0  0  0  0  0  0  0
    8.9960   36.4990   13.0080 C   0  0  0  0  0  0  0  0  0  0  0  0
    8.7850   35.9930   14.4410 C   0  0  0  0  0  0  0  0  0  0  0  0
    7.7860   36.5590   15.2710 C   0  0  0  0  0  0  0  0  0  0  0  0
    7.5900   36.0990   16.5850 C   0  0  0  0  0  0  0  0  0  0  0  0
    8.3910   35.0640   17.0930 C   0  0  0  0  0  0  0  0  0  0  0  0
    9.3920   34.4860   16.2890 C   0  0  0  0  0  0  0  0  0  0  0  0
   10.1880   33.4480   16.8160 C   0  0  0  0  0  0  0  0  0  0  0  0
   11.1930   32.8570   16.0300 C   0  0  0  0  0  0  0  0  0  0  0  0
   11.4040   33.3030   14.7140 C   0  0  0  0  0  0  0  0  0  0  0  0
   10.6140   34.3390   14.1810 C   0  0  0  0  0  0  0  0  0  0  0  0
    9.5960   34.9460   14.9590 C   0  0  0  0  0  0  0  0  0  0  0  0
   10.5500   38.2540   13.8790 C   0  0  0  0  0  0  0  0  0  0  0  0
   10.1060   38.4090   15.2090 C   0  0  0  0  0  0  0  0  0  0  0  0
   10.7560   39.3150   16.0640 C   0  0  0  0  0  0  0  0  0  0  0  0
   11.8470   40.0620   15.5870 C   0  0  0  0  0  0  0  0  0  0  0  0
   12.4800   40.9340   16.4070 F   0  0  0  0  0  0  0  0  0  0  0  0
   12.2820   39.9050   14.2570 C   0  0  0  0  0  0  0  0  0  0  0  0
   11.6430   39.0040   13.3700 C   0  0  0  0  0  0  0  0  0  0  0  0
    8.6046   40.8333   12.0507 H   0  0  0  0  0  0  0  0  0  0  0  0
    8.4410   42.4009   11.1891 H   0  0  0  0  0  0  0  0  0  0  0  0
    7.0791   41.2297   11.1891 H   0  0  0  0  0  0  0  0  0  0  0  0
    8.0292   39.9181    9.5414 H   0  0  0  0  0  0  0  0  0  0  0  0
    8.8460   41.4585    9.1170 H   0  0  0  0  0  0  0  0  0  0  0  0
   13.9872   40.3302    8.9102 H   0  0  0  0  0  0  0  0  0  0  0  0
   12.6900   39.3035    8.2102 H   0  0  0  0  0  0  0  0  0  0  0  0
   12.5185   41.0916    8.2102 H   0  0  0  0  0  0  0  0  0  0  0  0
   13.4133   38.4879   10.5664 H   0  0  0  0  0  0  0  0  0  0  0  0
   13.5267   39.8984   11.7068 H   0  0  0  0  0  0  0  0  0  0  0  0
    8.0718   36.9990   12.6826 H   0  0  0  0  0  0  0  0  0  0  0  0
    9.2493   35.6159   12.4030 H   0  0  0  0  0  0  0  0  0  0  0  0
    7.1541   37.3707   14.8814 H   0  0  0  0  0  0  0  0  0  0  0  0
    6.8091   36.5500   17.2150 H   0  0  0  0  0  0  0  0  0  0  0  0
    8.2363   34.7040   18.1209 H   0  0  0  0  0  0  0  0  0  0  0  0
   10.0220   33.0993   17.8460 H   0  0  0  0  0  0  0  0  0  0  0  0
   11.8124   32.0477   16.4440 H   0  0  0  0  0  0  0  0  0  0  0  0
   12.1895   32.8407   14.0981 H   0  0  0  0  0  0  0  0  0  0  0  0
   10.7883   34.6812   13.1502 H   0  0  0  0  0  0  0  0  0  0  0  0
    9.2518   37.8212   15.5763 H   0  0  0  0  0  0  0  0  0  0  0  0
   10.4127   39.4391   17.1017 H   0  0  0  0  0  0  0  0  0  0  0  0
   13.1379   40.4957   13.8984 H   0  0  0  0  0  0  0  0  0  0  0  0
  1  2  1  0
  2  3  1  0
  3  4  1  0
  4  5  2  0
  4  6  1  0
  6  7  1  0
  6  8  1  0
  8  9  1  0
  9 10  2  0
 10 11  1  0
 11 12  2  0
 11 13  1  0
 10 14  1  0
 14 15  1  0
 15 16  1  0
 16 17  2  0
 17 18  1  0
 18 19  2  0
 19 20  1  0
 20 21  2  0
 21 22  1  0
 22 23  2  0
 23 24  1  0
 24 25  2  0
 14 26  1  0
 26 27  2  0
 27 28  1  0
 28 29  2  0
 29 30  1  0
 29 31  1  0
 31 32  2  0
 32  9  1  0
 25 16  1  0
 32 26  1  0
 25 20  1  0
  1 33  1  0
  1 34  1  0
  1 35  1  0
  2 36  1  0
  2 37  1  0
  7 38  1  0
  7 39  1  0
  7 40  1  0
  8 41  1  0
  8 42  1  0
 15 43  1  0
 15 44  1  0
 17 45  1  0
 18 46  1  0
 19 47  1  0
 21 48  1  0
 22 49  1  0
 23 50  1  0
 24 51  1  0
 27 52  1  0
 28 53  1  0
 31 54  1  0
M  CHG  1  13  -1
M  END
>  <meeko>  (280) 
{"free_energy": -5.04, "intermolecular_energy": -7.43, "internal_energy": -1.77, "cluster_size": 73, "cluster_id": 49, "rank_in_cluster": 58}

$$$$

     RDKit          3D

 54 57  0  0  0  0  0  0  0  0999 V2000
    4.7290   44.0990   14.8470 C   0  0  0  0  0  0  0  0  0  0  0  0
    6.2030   44.1290   15.2600 C   0  0  0  0  0  0  0  0  0  0  0  0
    7.0110   43.8790   14.1210 O   0  0  0  0  0  0  0  0  0  0  0  0
    7.9870   42.9470   14.1760 C   0  0  0  0  0  0  0  0  0  0  0  0
    8.4830   42.5460   15.2300 O   0  0  0  0  0  0  0  0  0  0  0  0
    8.3280   42.5180   12.8870 N   0  0  0  0  0  0  0  0  0  0  0  0
    7.3800   42.5720   11.7690 C   0  0  0  0  0  0  0  0  0  0  0  0
    9.6560   41.9600   12.5970 C   0  0  0  0  0  0  0  0  0  0  0  0
    9.6380   40.4520   12.5150 C   0  0  0  0  0  0  0  0  0  0  0  0
   10.0700   39.5280   13.4500 C   0  0  0  0  0  0  0  0  0  0  0  0
   10.6420   39.7480   14.8150 C   0  0  0  0  0  0  0  0  0  0  0  0
   11.8820   39.8410   14.9380 O   0  0  0  0  0  0  0  0  0  0  0  0
    9.8940   39.8180   15.8140 O   0  0  0  0  0  1  0  0  0  0  0  0
    9.9170   38.2320   12.9120 N   0  0  0  0  0  0  0  0  0  0  0  0
   10.2290   36.9440   13.5380 C   0  0  0  0  0  0  0  0  0  0  0  0
    9.5610   36.7090   14.9000 C   0  0  0  0  0  0  0  0  0  0  0  0
    8.1700   36.4560   14.9920 C   0  0  0  0  0  0  0  0  0  0  0  0
    7.5540   36.2410   16.2370 C   0  0  0  0  0  0  0  0  0  0  0  0
    8.3190   36.2770   17.4140 C   0  0  0  0  0  0  0  0  0  0  0  0
    9.7020   36.5290   17.3490 C   0  0  0  0  0  0  0  0  0  0  0  0
   10.4550   36.5620   18.5410 C   0  0  0  0  0  0  0  0  0  0  0  0
   11.8380   36.8120   18.5000 C   0  0  0  0  0  0  0  0  0  0  0  0
   12.4730   37.0290   17.2640 C   0  0  0  0  0  0  0  0  0  0  0  0
   11.7270   36.9980   16.0700 C   0  0  0  0  0  0  0  0  0  0  0  0
   10.3330   36.7470   16.0930 C   0  0  0  0  0  0  0  0  0  0  0  0
    9.3870   38.3270   11.6320 C   0  0  0  0  0  0  0  0  0  0  0  0
    9.0600   37.3450   10.6750 C   0  0  0  0  0  0  0  0  0  0  0  0
    8.5190   37.7260    9.4360 C   0  0  0  0  0  0  0  0  0  0  0  0
    8.3040   39.0870    9.1590 C   0  0  0  0  0  0  0  0  0  0  0  0
    7.7780   39.4610    7.9680 F   0  0  0  0  0  0  0  0  0  0  0  0
    8.6360   40.0630   10.1190 C   0  0  0  0  0  0  0  0  0  0  0  0
    9.1890   39.7100   11.3730 C   0  0  0  0  0  0  0  0  0  0  0  0
    4.0963   44.0861   15.7467 H   0  0  0  0  0  0  0  0  0  0  0  0
    4.4976   44.9926   14.2488 H   0  0  0  0  0  0  0  0  0  0  0  0
    4.5341   43.1967   14.2488 H   0  0  0  0  0  0  0  0  0  0  0  0
    6.4487   45.1173   15.6758 H   0  0  0  0  0  0  0  0  0  0  0  0
    6.3894   43.3580   16.0221 H   0  0  0  0  0  0  0  0  0  0  0  0
    6.3538   42.6304   12.1609 H   0  0  0  0  0  0  0  0  0  0  0  0
    7.5887   43.4597   11.1538 H   0  0  0  0  0  0  0  0  0  0  0  0
    7.4865   41.6663   11.1538 H   0  0  0  0  0  0  0  0  0  0  0  0
   10.0066   42.3625   11.6352 H   0  0  0  0  0  0  0  0  0  0  0  0
   10.3279   42.2445   13.4201 H   0  0  0  0  0  0  0  0  0  0  0  0
    9.9042   36.1448   12.8556 H   0  0  0  0  0  0  0  0  0  0  0  0
   11.3135   36.9450   13.7222 H   0  0  0  0  0  0  0  0  0  0  0  0
    7.5629   36.4274   14.0752 H   0  0  0  0  0  0  0  0  0  0  0  0
    6.4729   36.0446   16.2893 H   0  0  0  0  0  0  0  0  0  0  0  0
    7.8366   36.1080   18.3880 H   0  0  0  0  0  0  0  0  0  0  0  0
    9.9580   36.3913   19.5074 H   0  0  0  0  0  0  0  0  0  0  0  0
   12.4217   36.8378   19.4320 H   0  0  0  0  0  0  0  0  0  0  0  0
   13.5551   37.2234   17.2299 H   0  0  0  0  0  0  0  0  0  0  0  0
   12.2325   37.1707   15.1084 H   0  0  0  0  0  0  0  0  0  0  0  0
    9.2284   36.2812   10.8983 H   0  0  0  0  0  0  0  0  0  0  0  0
    8.2648   36.9626    8.6859 H   0  0  0  0  0  0  0  0  0  0  0  0
    8.4613   41.1243    9.8886 H   0  0  0  0  0  0  0  0  0  0  0  0
  1  2  1  0
  2  3  1  0
  3  4  1  0
  4  5  2  0
  4  6  1  0
  6  7  1  0
  6  8  1  0
  8  9  1  0
  9 10  2  0
 10 11  1  0
 11 12  2  0
 11 13  1  0
 10 14  1  0
 14 15  1  0
 15 16  1  0
 16 17  2  0
 17 18  1  0
 18 19  2  0
 19 20  1  0
 20 21  2  0
 21 22  1  0
 22 23  2  0
 23 24  1  0
 24 25  2  0
 14 26  1  0
 26 27  2  0
 27 28  1  0
 28 29  2  0
 29 30  1  0
 29 31  1  0
 31 32  2  0
 32  9  1  0
 25 16  1  0
 32 26  1  0
 25 20  1  0
  1 33  1  0
  1 34  1  0
  1 35  1  0
  2 36  1  0
  2 37  1  0
  7 38  1  0
  7 39  1  0
  7 40  1  0
  8 41  1  0
  8 42  1  0
 15 43  1  0
 15 44  1  0
 17 45  1  0
 18 46  1  0
 19 47  1  0
 21 48  1  0
 22 49  1  0
 23 50  1  0
 24 51  1  0
 27 52  1  0
 28 53  1  0
 31 54  1  0
M  CHG  1  13  -1
M  END
>  <meeko>  (281) 
{"free_energy": -5.71, "intermolecular_energy": -8.09, "internal_energy": -1.83, "cluster_size": 35, "cluster_id": 73, "rank_in_cluster": 10}

$$$$

     RDKit          3D

 54 57  0  0  0  0  0  0  0  0999 V2000
    8.9690   40.2950    9.3410 C   0  0  0  0  0  0  0  0  0  0  0  0
    8.8170   39.5510   10.6690 C   0  0  0  0  0  0  0  0  0  0  0  0
    8.5130   40.4830   11.6950 O   0  0  0  0  0  0  0  0  0  0  0  0
    8.3100   41.7820   11.3890 C   0  0  0  0  0  0  0  0  0  0  0  0
    7.3720   42.1770   10.6950 O   0  0  0  0  0  0  0  0  0  0  0  0
    9.3000   42.5840   11.9720 N   0  0  0  0  0  0  0  0  0  0  0  0
    8.9810   43.6250   12.9560 C   0  0  0  0  0  0  0  0  0  0  0  0
   10.7140   42.4390   11.6020 C   0  0  0  0  0  0  0  0  0  0  0  0
   11.2720   41.0910   11.9920 C   0  0  0  0  0  0  0  0  0  0  0  0
   11.0460   40.3590   13.1440 C   0  0  0  0  0  0  0  0  0  0  0  0
   10.1640   40.6690   14.3130 C   0  0  0  0  0  0  0  0  0  0  0  0
    9.3640   39.7950   14.7100 O   0  0  0  0  0  0  0  0  0  0  0  0
   10.2140   41.7880   14.8690 O   0  0  0  0  0  1  0  0  0  0  0  0
   11.8310   39.1870   13.1000 N   0  0  0  0  0  0  0  0  0  0  0  0
   11.9140   38.1090   14.0900 C   0  0  0  0  0  0  0  0  0  0  0  0
   10.7180   37.1480   14.0980 C   0  0  0  0  0  0  0  0  0  0  0  0
   10.0650   36.7910   12.8920 C   0  0  0  0  0  0  0  0  0  0  0  0
    8.9690   35.9110   12.8950 C   0  0  0  0  0  0  0  0  0  0  0  0
    8.5030   35.3740   14.1060 C   0  0  0  0  0  0  0  0  0  0  0  0
    9.1340   35.7150   15.3170 C   0  0  0  0  0  0  0  0  0  0  0  0
    8.6520   35.1660   16.5240 C   0  0  0  0  0  0  0  0  0  0  0  0
    9.2660   35.4920   17.7460 C   0  0  0  0  0  0  0  0  0  0  0  0
   10.3650   36.3700   17.7640 C   0  0  0  0  0  0  0  0  0  0  0  0
   10.8500   36.9220   16.5630 C   0  0  0  0  0  0  0  0  0  0  0  0
   10.2440   36.6030   15.3230 C   0  0  0  0  0  0  0  0  0  0  0  0
   12.5610   39.1700   11.9190 C   0  0  0  0  0  0  0  0  0  0  0  0
   13.4920   38.2450   11.4030 C   0  0  0  0  0  0  0  0  0  0  0  0
   14.0880   38.4740   10.1520 C   0  0  0  0  0  0  0  0  0  0  0  0
   13.7500   39.6250    9.4200 C   0  0  0  0  0  0  0  0  0  0  0  0
   14.3180   39.8500    8.2110 F   0  0  0  0  0  0  0  0  0  0  0  0
   12.8220   40.5460    9.9430 C   0  0  0  0  0  0  0  0  0  0  0  0
   12.2100   40.3460   11.2040 C   0  0  0  0  0  0  0  0  0  0  0  0
    9.1856   41.3554    9.5375 H   0  0  0  0  0  0  0  0  0  0  0  0
    9.7953   39.8525    8.7653 H   0  0  0  0  0  0  0  0  0  0  0  0
    8.0354   40.2121    8.7653 H   0  0  0  0  0  0  0  0  0  0  0  0
    8.0031   38.8155   10.5874 H   0  0  0  0  0  0  0  0  0  0  0  0
    9.7554   39.0301   10.9098 H   0  0  0  0  0  0  0  0  0  0  0  0
    9.1050   43.2202   13.9713 H   0  0  0  0  0  0  0  0  0  0  0  0
    9.6582   44.4807   12.8171 H   0  0  0  0  0  0  0  0  0  0  0  0
    7.9407   43.9544   12.8171 H   0  0  0  0  0  0  0  0  0  0  0  0
   10.8090   42.5597   10.5128 H   0  0  0  0  0  0  0  0  0  0  0  0
   11.2844   43.2089   12.1422 H   0  0  0  0  0  0  0  0  0  0  0  0
   12.8218   37.5235   13.8827 H   0  0  0  0  0  0  0  0  0  0  0  0
   11.9264   38.5954   15.0765 H   0  0  0  0  0  0  0  0  0  0  0  0
   10.4213   37.2090   11.9389 H   0  0  0  0  0  0  0  0  0  0  0  0
    8.4763   35.6429   11.9488 H   0  0  0  0  0  0  0  0  0  0  0  0
    7.6443   34.6865   14.1081 H   0  0  0  0  0  0  0  0  0  0  0  0
    7.7922   34.4800   16.5089 H   0  0  0  0  0  0  0  0  0  0  0  0
    8.8882   35.0618   18.6853 H   0  0  0  0  0  0  0  0  0  0  0  0
   10.8468   36.6260   18.7191 H   0  0  0  0  0  0  0  0  0  0  0  0
   11.7090   37.6086   16.5879 H   0  0  0  0  0  0  0  0  0  0  0  0
   13.7512   37.3449   11.9798 H   0  0  0  0  0  0  0  0  0  0  0  0
   14.8160   37.7557    9.7471 H   0  0  0  0  0  0  0  0  0  0  0  0
   12.5666   41.4419    9.3581 H   0  0  0  0  0  0  0  0  0  0  0  0
  1  2  1  0
  2  3  1  0
  3  4  1  0
  4  5  2  0
  4  6  1  0
  6  7  1  0
  6  8  1  0
  8  9  1  0
  9 10  2  0
 10 11  1  0
 11 12  2  0
 11 13  1  0
 10 14  1  0
 14 15  1  0
 15 16  1  0
 16 17  2  0
 17 18  1  0
 18 19  2  0
 19 20  1  0
 20 21  2  0
 21 22  1  0
 22 23  2  0
 23 24  1  0
 24 25  2  0
 14 26  1  0
 26 27  2  0
 27 28  1  0
 28 29  2  0
 29 30  1  0
 29 31  1  0
 31 32  2  0
 32  9  1  0
 25 16  1  0
 32 26  1  0
 25 20  1  0
  1 33  1  0
  1 34  1  0
  1 35  1  0
  2 36  1  0
  2 37  1  0
  7 38  1  0
  7 39  1  0
  7 40  1  0
  8 41  1  0
  8 42  1  0
 15 43  1  0
 15 44  1  0
 17 45  1  0
 18 46  1  0
 19 47  1  0
 21 48  1  0
 22 49  1  0
 23 50  1  0
 24 51  1  0
 27 52  1  0
 28 53  1  0
 31 54  1  0
M  CHG  1  13  -1
M  END
>  <meeko>  (282) 
{"free_energy": -4.56, "intermolecular_energy": -6.95, "internal_energy": -2.09, "cluster_size": 27, "cluster_id": 96, "rank_in_cluster": 16}

$$$$

     RDKit          3D

 54 57  0  0  0  0  0  0  0  0999 V2000
    9.0450   42.2760   11.6550 C   0  0  0  0  0  0  0  0  0  0  0  0
    8.8780   42.4440   13.1670 C   0  0  0  0  0  0  0  0  0  0  0  0
    9.6690   43.5370   13.6060 O   0  0  0  0  0  0  0  0  0  0  0  0
   10.7360   43.3230   14.4050 C   0  0  0  0  0  0  0  0  0  0  0  0
   11.6340   44.1490   14.5730 O   0  0  0  0  0  0  0  0  0  0  0  0
   10.6580   42.0560   14.9990 N   0  0  0  0  0  0  0  0  0  0  0  0
    9.6060   41.7090   15.9620 C   0  0  0  0  0  0  0  0  0  0  0  0
   11.6520   41.0150   14.7060 C   0  0  0  0  0  0  0  0  0  0  0  0
   11.2930   40.2110   13.4790 C   0  0  0  0  0  0  0  0  0  0  0  0
   10.5020   39.0790   13.3850 C   0  0  0  0  0  0  0  0  0  0  0  0
    9.7510   38.3490   14.4540 C   0  0  0  0  0  0  0  0  0  0  0  0
   10.0760   38.5300   15.6470 O   0  0  0  0  0  0  0  0  0  0  0  0
    8.8280   37.5590   14.1560 O   0  0  0  0  0  1  0  0  0  0  0  0
   10.5020   38.6350   12.0460 N   0  0  0  0  0  0  0  0  0  0  0  0
    9.8000   37.4850   11.4680 C   0  0  0  0  0  0  0  0  0  0  0  0
    8.9960   37.7920   10.1970 C   0  0  0  0  0  0  0  0  0  0  0  0
    8.5380   39.1060    9.9280 C   0  0  0  0  0  0  0  0  0  0  0  0
    7.8010   39.3920    8.7660 C   0  0  0  0  0  0  0  0  0  0  0  0
    7.5070   38.3680    7.8510 C   0  0  0  0  0  0  0  0  0  0  0  0
    7.9490   37.0540    8.0980 C   0  0  0  0  0  0  0  0  0  0  0  0
    7.6430   36.0380    7.1690 C   0  0  0  0  0  0  0  0  0  0  0  0
    8.0740   34.7180    7.3940 C   0  0  0  0  0  0  0  0  0  0  0  0
    8.8130   34.4120    8.5510 C   0  0  0  0  0  0  0  0  0  0  0  0
    9.1210   35.4220    9.4820 C   0  0  0  0  0  0  0  0  0  0  0  0
    8.6950   36.7570    9.2710 C   0  0  0  0  0  0  0  0  0  0  0  0
   11.2930   39.4830   11.2820 C   0  0  0  0  0  0  0  0  0  0  0  0
   11.6300   39.4740    9.9130 C   0  0  0  0  0  0  0  0  0  0  0  0
   12.4610   40.4790    9.3890 C   0  0  0  0  0  0  0  0  0  0  0  0
   12.9500   41.4890   10.2360 C   0  0  0  0  0  0  0  0  0  0  0  0
   13.7490   42.4630    9.7360 F   0  0  0  0  0  0  0  0  0  0  0  0
   12.6120   41.4890   11.6030 C   0  0  0  0  0  0  0  0  0  0  0  0
   11.7830   40.4860   12.1600 C   0  0  0  0  0  0  0  0  0  0  0  0
    9.8073   41.5091   11.4533 H   0  0  0  0  0  0  0  0  0  0  0  0
    8.0869   41.9659   11.2125 H   0  0  0  0  0  0  0  0  0  0  0  0
    9.3608   43.2323   11.2125 H   0  0  0  0  0  0  0  0  0  0  0  0
    7.8208   42.6378   13.4009 H   0  0  0  0  0  0  0  0  0  0  0  0
    9.2013   41.5254   13.6785 H   0  0  0  0  0  0  0  0  0  0  0  0
    9.9894   41.8355   16.9852 H   0  0  0  0  0  0  0  0  0  0  0  0
    8.7388   42.3687   15.8112 H   0  0  0  0  0  0  0  0  0  0  0  0
    9.3015   40.6628   15.8112 H   0  0  0  0  0  0  0  0  0  0  0  0
   12.6286   41.4940   14.5421 H   0  0  0  0  0  0  0  0  0  0  0  0
   11.6820   40.3265   15.5634 H   0  0  0  0  0  0  0  0  0  0  0  0
   10.5475   36.7163   11.2224 H   0  0  0  0  0  0  0  0  0  0  0  0
    9.0707   37.1568   12.2232 H   0  0  0  0  0  0  0  0  0  0  0  0
    8.7628   39.9142   10.6395 H   0  0  0  0  0  0  0  0  0  0  0  0
    7.4544   40.4180    8.5732 H   0  0  0  0  0  0  0  0  0  0  0  0
    6.9312   38.5924    6.9410 H   0  0  0  0  0  0  0  0  0  0  0  0
    7.0649   36.2788    6.2647 H   0  0  0  0  0  0  0  0  0  0  0  0
    7.8339   33.9277    6.6675 H   0  0  0  0  0  0  0  0  0  0  0  0
    9.1512   33.3805    8.7289 H   0  0  0  0  0  0  0  0  0  0  0  0
    9.6991   35.1720   10.3838 H   0  0  0  0  0  0  0  0  0  0  0  0
   11.2430   38.6813    9.2558 H   0  0  0  0  0  0  0  0  0  0  0  0
   12.7274   40.4754    8.3218 H   0  0  0  0  0  0  0  0  0  0  0  0
   13.0011   42.2867   12.2528 H   0  0  0  0  0  0  0  0  0  0  0  0
  1  2  1  0
  2  3  1  0
  3  4  1  0
  4  5  2  0
  4  6  1  0
  6  7  1  0
  6  8  1  0
  8  9  1  0
  9 10  2  0
 10 11  1  0
 11 12  2  0
 11 13  1  0
 10 14  1  0
 14 15  1  0
 15 16  1  0
 16 17  2  0
 17 18  1  0
 18 19  2  0
 19 20  1  0
 20 21  2  0
 21 22  1  0
 22 23  2  0
 23 24  1  0
 24 25  2  0
 14 26  1  0
 26 27  2  0
 27 28  1  0
 28 29  2  0
 29 30  1  0
 29 31  1  0
 31 32  2  0
 32  9  1  0
 25 16  1  0
 32 26  1  0
 25 20  1  0
  1 33  1  0
  1 34  1  0
  1 35  1  0
  2 36  1  0
  2 37  1  0
  7 38  1  0
  7 39  1  0
  7 40  1  0
  8 41  1  0
  8 42  1  0
 15 43  1  0
 15 44  1  0
 17 45  1  0
 18 46  1  0
 19 47  1  0
 21 48  1  0
 22 49  1  0
 23 50  1  0
 24 51  1  0
 27 52  1  0
 28 53  1  0
 31 54  1  0
M  CHG  1  13  -1
M  END
>  <meeko>  (283) 
{"free_energy": -5.77, "intermolecular_energy": -8.15, "internal_energy": -1.99, "cluster_size": 210, "cluster_id": 15, "rank_in_cluster": 117}

$$$$

     RDKit          3D

 54 57  0  0  0  0  0  0  0  0999 V2000
   12.6600   42.9090    4.9860 C   0  0  0  0  0  0  0  0  0  0  0  0
   13.3050   43.8980    5.9610 C   0  0  0  0  0  0  0  0  0  0  0  0
   14.3040   43.2280    6.7130 O   0  0  0  0  0  0  0  0  0  0  0  0
   14.0140   42.0680    7.3400 C   0  0  0  0  0  0  0  0  0  0  0  0
   14.3090   40.9600    6.8870 O   0  0  0  0  0  0  0  0  0  0  0  0
   13.3520   42.3150    8.5500 N   0  0  0  0  0  0  0  0  0  0  0  0
   13.8920   43.2300    9.5610 C   0  0  0  0  0  0  0  0  0  0  0  0
   12.0890   41.6410    8.8790 C   0  0  0  0  0  0  0  0  0  0  0  0
   12.3040   40.2210    9.3500 C   0  0  0  0  0  0  0  0  0  0  0  0
   11.3600   39.2490    9.6300 C   0  0  0  0  0  0  0  0  0  0  0  0
    9.8690   39.3060    9.5160 C   0  0  0  0  0  0  0  0  0  0  0  0
    9.2520   40.1860   10.1540 O   0  0  0  0  0  0  0  0  0  0  0  0
    9.2530   38.4770    8.8130 O   0  0  0  0  0  1  0  0  0  0  0  0
   12.0230   38.0950   10.1010 N   0  0  0  0  0  0  0  0  0  0  0  0
   11.4400   36.8140   10.5100 C   0  0  0  0  0  0  0  0  0  0  0  0
   10.5830   36.8720   11.7820 C   0  0  0  0  0  0  0  0  0  0  0  0
    9.3920   36.1120   11.8900 C   0  0  0  0  0  0  0  0  0  0  0  0
    8.6050   36.1620   13.0530 C   0  0  0  0  0  0  0  0  0  0  0  0
    8.9930   36.9760   14.1300 C   0  0  0  0  0  0  0  0  0  0  0  0
   10.1710   37.7420   14.0460 C   0  0  0  0  0  0  0  0  0  0  0  0
   10.5450   38.5540   15.1360 C   0  0  0  0  0  0  0  0  0  0  0  0
   11.7170   39.3280   15.0740 C   0  0  0  0  0  0  0  0  0  0  0  0
   12.5190   39.2910   13.9200 C   0  0  0  0  0  0  0  0  0  0  0  0
   12.1510   38.4830   12.8270 C   0  0  0  0  0  0  0  0  0  0  0  0
   10.9730   37.6960   12.8730 C   0  0  0  0  0  0  0  0  0  0  0  0
   13.3910   38.3300   10.1220 C   0  0  0  0  0  0  0  0  0  0  0  0
   14.4770   37.5210   10.5160 C   0  0  0  0  0  0  0  0  0  0  0  0
   15.7890   38.0160   10.4250 C   0  0  0  0  0  0  0  0  0  0  0  0
   16.0100   39.3160    9.9390 C   0  0  0  0  0  0  0  0  0  0  0  0
   17.2730   39.7980    9.8450 F   0  0  0  0  0  0  0  0  0  0  0  0
   14.9210   40.1190    9.5510 C   0  0  0  0  0  0  0  0  0  0  0  0
   13.5870   39.6510    9.6380 C   0  0  0  0  0  0  0  0  0  0  0  0
   12.1448   42.1191    5.5522 H   0  0  0  0  0  0  0  0  0  0  0  0
   11.9336   43.4394    4.3527 H   0  0  0  0  0  0  0  0  0  0  0  0
   13.4382   42.4581    4.3527 H   0  0  0  0  0  0  0  0  0  0  0  0
   13.7615   44.7252    5.3976 H   0  0  0  0  0  0  0  0  0  0  0  0
   12.5388   44.3000    6.6402 H   0  0  0  0  0  0  0  0  0  0  0  0
   13.6636   42.8431   10.5651 H   0  0  0  0  0  0  0  0  0  0  0  0
   14.9822   43.3101    9.4381 H   0  0  0  0  0  0  0  0  0  0  0  0
   13.4352   44.2231    9.4381 H   0  0  0  0  0  0  0  0  0  0  0  0
   11.5836   42.2057    9.6763 H   0  0  0  0  0  0  0  0  0  0  0  0
   11.4784   41.6042    7.9648 H   0  0  0  0  0  0  0  0  0  0  0  0
   10.8073   36.4483    9.6878 H   0  0  0  0  0  0  0  0  0  0  0  0
   12.2856   36.1482   10.7373 H   0  0  0  0  0  0  0  0  0  0  0  0
    9.0788   35.4734   11.0509 H   0  0  0  0  0  0  0  0  0  0  0  0
    7.6846   35.5634   13.1201 H   0  0  0  0  0  0  0  0  0  0  0  0
    8.3758   37.0149   15.0397 H   0  0  0  0  0  0  0  0  0  0  0  0
    9.9172   38.5821   16.0388 H   0  0  0  0  0  0  0  0  0  0  0  0
   12.0057   39.9608   15.9262 H   0  0  0  0  0  0  0  0  0  0  0  0
   13.4369   39.8951   13.8707 H   0  0  0  0  0  0  0  0  0  0  0  0
   12.7844   38.4624   11.9279 H   0  0  0  0  0  0  0  0  0  0  0  0
   14.2972   36.5038   10.8941 H   0  0  0  0  0  0  0  0  0  0  0  0
   16.6389   37.3890   10.7327 H   0  0  0  0  0  0  0  0  0  0  0  0
   15.1104   41.1339    9.1713 H   0  0  0  0  0  0  0  0  0  0  0  0
  1  2  1  0
  2  3  1  0
  3  4  1  0
  4  5  2  0
  4  6  1  0
  6  7  1  0
  6  8  1  0
  8  9  1  0
  9 10  2  0
 10 11  1  0
 11 12  2  0
 11 13  1  0
 10 14  1  0
 14 15  1  0
 15 16  1  0
 16 17  2  0
 17 18  1  0
 18 19  2  0
 19 20  1  0
 20 21  2  0
 21 22  1  0
 22 23  2  0
 23 24  1  0
 24 25  2  0
 14 26  1  0
 26 27  2  0
 27 28  1  0
 28 29  2  0
 29 30  1  0
 29 31  1  0
 31 32  2  0
 32  9  1  0
 25 16  1  0
 32 26  1  0
 25 20  1  0
  1 33  1  0
  1 34  1  0
  1 35  1  0
  2 36  1  0
  2 37  1  0
  7 38  1  0
  7 39  1  0
  7 40  1  0
  8 41  1  0
  8 42  1  0
 15 43  1  0
 15 44  1  0
 17 45  1  0
 18 46  1  0
 19 47  1  0
 21 48  1  0
 22 49  1  0
 23 50  1  0
 24 51  1  0
 27 52  1  0
 28 53  1  0
 31 54  1  0
M  CHG  1  13  -1
M  END
>  <meeko>  (284) 
{"free_energy": -4.38, "intermolecular_energy": -6.77, "internal_energy": -1.77, "cluster_size": 5, "cluster_id": 153, "rank_in_cluster": 4}

$$$$

     RDKit          3D

 54 57  0  0  0  0  0  0  0  0999 V2000
   16.6360   38.8020   16.3170 C   0  0  0  0  0  0  0  0  0  0  0  0
   15.8990   37.4950   16.0150 C   0  0  0  0  0  0  0  0  0  0  0  0
   14.5260   37.7730   15.7940 O   0  0  0  0  0  0  0  0  0  0  0  0
   13.6980   37.9670   16.8430 C   0  0  0  0  0  0  0  0  0  0  0  0
   13.6080   39.0380   17.4450 O   0  0  0  0  0  0  0  0  0  0  0  0
   12.9770   36.7990   17.1230 N   0  0  0  0  0  0  0  0  0  0  0  0
   13.6390   35.5090   17.3470 C   0  0  0  0  0  0  0  0  0  0  0  0
   11.5090   36.8050   17.1780 C   0  0  0  0  0  0  0  0  0  0  0  0
   10.8870   37.0390   15.8220 C   0  0  0  0  0  0  0  0  0  0  0  0
   10.5170   36.1100   14.8650 C   0  0  0  0  0  0  0  0  0  0  0  0
   10.5920   34.6160   14.9080 C   0  0  0  0  0  0  0  0  0  0  0  0
   11.5820   34.0800   15.4520 O   0  0  0  0  0  0  0  0  0  0  0  0
    9.6920   33.9180   14.3920 O   0  0  0  0  0  1  0  0  0  0  0  0
   10.0370   36.7940   13.7280 N   0  0  0  0  0  0  0  0  0  0  0  0
    9.5260   36.2310   12.4750 C   0  0  0  0  0  0  0  0  0  0  0  0
    9.4590   37.2200   11.3040 C   0  0  0  0  0  0  0  0  0  0  0  0
    8.2120   37.6240   10.7650 C   0  0  0  0  0  0  0  0  0  0  0  0
    8.1460   38.5300    9.6930 C   0  0  0  0  0  0  0  0  0  0  0  0
    9.3270   39.0480    9.1370 C   0  0  0  0  0  0  0  0  0  0  0  0
   10.5780   38.6600    9.6530 C   0  0  0  0  0  0  0  0  0  0  0  0
   11.7540   39.1900    9.0820 C   0  0  0  0  0  0  0  0  0  0  0  0
   13.0140   38.8170    9.5820 C   0  0  0  0  0  0  0  0  0  0  0  0
   13.1020   37.9130   10.6550 C   0  0  0  0  0  0  0  0  0  0  0  0
   11.9310   37.3800   11.2290 C   0  0  0  0  0  0  0  0  0  0  0  0
   10.6530   37.7450   10.7390 C   0  0  0  0  0  0  0  0  0  0  0  0
   10.0990   38.1620   13.9580 C   0  0  0  0  0  0  0  0  0  0  0  0
    9.7590   39.2670   13.1500 C   0  0  0  0  0  0  0  0  0  0  0  0
    9.9180   40.5720   13.6440 C   0  0  0  0  0  0  0  0  0  0  0  0
   10.4140   40.7690   14.9440 C   0  0  0  0  0  0  0  0  0  0  0  0
   10.5660   42.0240   15.4290 F   0  0  0  0  0  0  0  0  0  0  0  0
   10.7560   39.6610   15.7440 C   0  0  0  0  0  0  0  0  0  0  0  0
   10.6130   38.3340   15.2710 C   0  0  0  0  0  0  0  0  0  0  0  0
   16.7120   38.9369   17.4060 H   0  0  0  0  0  0  0  0  0  0  0  0
   17.6452   38.7631   15.8810 H   0  0  0  0  0  0  0  0  0  0  0  0
   16.0805   39.6454   15.8810 H   0  0  0  0  0  0  0  0  0  0  0  0
   16.3293   37.0295   15.1160 H   0  0  0  0  0  0  0  0  0  0  0  0
   16.0038   36.8069   16.8667 H   0  0  0  0  0  0  0  0  0  0  0  0
   13.7322   35.3275   18.4279 H   0  0  0  0  0  0  0  0  0  0  0  0
   13.0415   34.7061   16.8905 H   0  0  0  0  0  0  0  0  0  0  0  0
   14.6397   35.5262   16.8905 H   0  0  0  0  0  0  0  0  0  0  0  0
   11.1652   35.8333   17.5623 H   0  0  0  0  0  0  0  0  0  0  0  0
   11.1997   37.6292   17.8375 H   0  0  0  0  0  0  0  0  0  0  0  0
   10.1818   35.3979   12.1819 H   0  0  0  0  0  0  0  0  0  0  0  0
    8.4904   35.9191   12.6759 H   0  0  0  0  0  0  0  0  0  0  0  0
    7.2815   37.2221   11.1925 H   0  0  0  0  0  0  0  0  0  0  0  0
    7.1689   38.8336    9.2891 H   0  0  0  0  0  0  0  0  0  0  0  0
    9.2745   39.7573    8.2979 H   0  0  0  0  0  0  0  0  0  0  0  0
   11.6850   39.8976    8.2426 H   0  0  0  0  0  0  0  0  0  0  0  0
   13.9292   39.2318    9.1344 H   0  0  0  0  0  0  0  0  0  0  0  0
   14.0874   37.6212   11.0473 H   0  0  0  0  0  0  0  0  0  0  0  0
   12.0100   36.6722   12.0674 H   0  0  0  0  0  0  0  0  0  0  0  0
    9.3696   39.1067   12.1338 H   0  0  0  0  0  0  0  0  0  0  0  0
    9.6554   41.4362   13.0161 H   0  0  0  0  0  0  0  0  0  0  0  0
   11.1431   39.8306   16.7596 H   0  0  0  0  0  0  0  0  0  0  0  0
  1  2  1  0
  2  3  1  0
  3  4  1  0
  4  5  2  0
  4  6  1  0
  6  7  1  0
  6  8  1  0
  8  9  1  0
  9 10  2  0
 10 11  1  0
 11 12  2  0
 11 13  1  0
 10 14  1  0
 14 15  1  0
 15 16  1  0
 16 17  2  0
 17 18  1  0
 18 19  2  0
 19 20  1  0
 20 21  2  0
 21 22  1  0
 22 23  2  0
 23 24  1  0
 24 25  2  0
 14 26  1  0
 26 27  2  0
 27 28  1  0
 28 29  2  0
 29 30  1  0
 29 31  1  0
 31 32  2  0
 32  9  1  0
 25 16  1  0
 32 26  1  0
 25 20  1  0
  1 33  1  0
  1 34  1  0
  1 35  1  0
  2 36  1  0
  2 37  1  0
  7 38  1  0
  7 39  1  0
  7 40  1  0
  8 41  1  0
  8 42  1  0
 15 43  1  0
 15 44  1  0
 17 45  1  0
 18 46  1  0
 19 47  1  0
 21 48  1  0
 22 49  1  0
 23 50  1  0
 24 51  1  0
 27 52  1  0
 28 53  1  0
 31 54  1  0
M  CHG  1  13  -1
M  END
>  <meeko>  (285) 
{"free_energy": -4.61, "intermolecular_energy": -7.0, "internal_energy": -1.61, "cluster_size": 3, "cluster_id": 155, "rank_in_cluster": 3}

$$$$

     RDKit          3D

 54 57  0  0  0  0  0  0  0  0999 V2000
   11.0580   41.2370   13.6080 C   0  0  0  0  0  0  0  0  0  0  0  0
   12.3980   40.6000   13.2330 C   0  0  0  0  0  0  0  0  0  0  0  0
   12.7320   40.9640   11.9030 O   0  0  0  0  0  0  0  0  0  0  0  0
   11.7600   41.3160   11.0340 C   0  0  0  0  0  0  0  0  0  0  0  0
   11.3740   42.4760   10.8820 O   0  0  0  0  0  0  0  0  0  0  0  0
   11.2830   40.1900   10.3490 N   0  0  0  0  0  0  0  0  0  0  0  0
   10.1330   39.4160   10.8280 C   0  0  0  0  0  0  0  0  0  0  0  0
   11.9350   39.7100    9.1240 C   0  0  0  0  0  0  0  0  0  0  0  0
   13.3160   40.2960    8.9430 C   0  0  0  0  0  0  0  0  0  0  0  0
   13.7140   41.3400    8.1270 C   0  0  0  0  0  0  0  0  0  0  0  0
   12.8980   42.2080    7.2220 C   0  0  0  0  0  0  0  0  0  0  0  0
   12.3860   43.2490    7.6880 O   0  0  0  0  0  0  0  0  0  0  0  0
   12.7170   41.8880    6.0270 O   0  0  0  0  0  1  0  0  0  0  0  0
   15.1130   41.4950    8.2380 N   0  0  0  0  0  0  0  0  0  0  0  0
   15.9760   42.4750    7.5720 C   0  0  0  0  0  0  0  0  0  0  0  0
   16.0780   42.3130    6.0490 C   0  0  0  0  0  0  0  0  0  0  0  0
   15.2130   43.0290    5.1830 C   0  0  0  0  0  0  0  0  0  0  0  0
   15.3030   42.8840    3.7880 C   0  0  0  0  0  0  0  0  0  0  0  0
   16.2590   42.0190    3.2320 C   0  0  0  0  0  0  0  0  0  0  0  0
   17.1290   41.2960    4.0710 C   0  0  0  0  0  0  0  0  0  0  0  0
   18.0830   40.4320    3.4950 C   0  0  0  0  0  0  0  0  0  0  0  0
   18.9610   39.7000    4.3130 C   0  0  0  0  0  0  0  0  0  0  0  0
   18.8870   39.8310    5.7120 C   0  0  0  0  0  0  0  0  0  0  0  0
   17.9370   40.6920    6.2930 C   0  0  0  0  0  0  0  0  0  0  0  0
   17.0440   41.4380    5.4830 C   0  0  0  0  0  0  0  0  0  0  0  0
   15.6090   40.5490    9.1250 C   0  0  0  0  0  0  0  0  0  0  0  0
   16.9190   40.2720    9.5680 C   0  0  0  0  0  0  0  0  0  0  0  0
   17.1420   39.2420   10.4960 C   0  0  0  0  0  0  0  0  0  0  0  0
   16.0550   38.4930   10.9800 C   0  0  0  0  0  0  0  0  0  0  0  0
   16.2630   37.5010   11.8780 F   0  0  0  0  0  0  0  0  0  0  0  0
   14.7500   38.7730   10.5300 C   0  0  0  0  0  0  0  0  0  0  0  0
   14.4950   39.8010    9.5900 C   0  0  0  0  0  0  0  0  0  0  0  0
   10.9665   41.2805   14.7033 H   0  0  0  0  0  0  0  0  0  0  0  0
   11.0078   42.2553   13.1951 H   0  0  0  0  0  0  0  0  0  0  0  0
   10.2366   40.6330   13.1951 H   0  0  0  0  0  0  0  0  0  0  0  0
   13.1799   40.9570   13.9195 H   0  0  0  0  0  0  0  0  0  0  0  0
   12.3205   39.5053   13.3080 H   0  0  0  0  0  0  0  0  0  0  0  0
   10.1265   39.4116   11.9280 H   0  0  0  0  0  0  0  0  0  0  0  0
    9.2035   39.8730   10.4576 H   0  0  0  0  0  0  0  0  0  0  0  0
   10.2065   38.3828   10.4576 H   0  0  0  0  0  0  0  0  0  0  0  0
   12.0192   38.6144    9.1739 H   0  0  0  0  0  0  0  0  0  0  0  0
   11.3199   40.0266    8.2688 H   0  0  0  0  0  0  0  0  0  0  0  0
   15.5801   43.4792    7.7836 H   0  0  0  0  0  0  0  0  0  0  0  0
   16.9894   42.3155    7.9689 H   0  0  0  0  0  0  0  0  0  0  0  0
   14.4602   43.7082    5.6095 H   0  0  0  0  0  0  0  0  0  0  0  0
   14.6243   43.4483    3.1316 H   0  0  0  0  0  0  0  0  0  0  0  0
   16.3286   41.9059    2.1400 H   0  0  0  0  0  0  0  0  0  0  0  0
   18.1403   40.3304    2.4012 H   0  0  0  0  0  0  0  0  0  0  0  0
   19.7039   39.0266    3.8607 H   0  0  0  0  0  0  0  0  0  0  0  0
   19.5735   39.2590    6.3535 H   0  0  0  0  0  0  0  0  0  0  0  0
   17.8869   40.7871    7.3877 H   0  0  0  0  0  0  0  0  0  0  0  0
   17.7653   40.8623    9.1869 H   0  0  0  0  0  0  0  0  0  0  0  0
   18.1625   39.0221   10.8427 H   0  0  0  0  0  0  0  0  0  0  0  0
   13.9092   38.1792   10.9178 H   0  0  0  0  0  0  0  0  0  0  0  0
  1  2  1  0
  2  3  1  0
  3  4  1  0
  4  5  2  0
  4  6  1  0
  6  7  1  0
  6  8  1  0
  8  9  1  0
  9 10  2  0
 10 11  1  0
 11 12  2  0
 11 13  1  0
 10 14  1  0
 14 15  1  0
 15 16  1  0
 16 17  2  0
 17 18  1  0
 18 19  2  0
 19 20  1  0
 20 21  2  0
 21 22  1  0
 22 23  2  0
 23 24  1  0
 24 25  2  0
 14 26  1  0
 26 27  2  0
 27 28  1  0
 28 29  2  0
 29 30  1  0
 29 31  1  0
 31 32  2  0
 32  9  1  0
 25 16  1  0
 32 26  1  0
 25 20  1  0
  1 33  1  0
  1 34  1  0
  1 35  1  0
  2 36  1  0
  2 37  1  0
  7 38  1  0
  7 39  1  0
  7 40  1  0
  8 41  1  0
  8 42  1  0
 15 43  1  0
 15 44  1  0
 17 45  1  0
 18 46  1  0
 19 47  1  0
 21 48  1  0
 22 49  1  0
 23 50  1  0
 24 51  1  0
 27 52  1  0
 28 53  1  0
 31 54  1  0
M  CHG  1  13  -1
M  END
>  <meeko>  (286) 
{"free_energy": -4.4, "intermolecular_energy": -6.79, "internal_energy": -2.08, "cluster_size": 25, "cluster_id": 92, "rank_in_cluster": 15}

$$$$

     RDKit          3D

 54 57  0  0  0  0  0  0  0  0999 V2000
    8.2310   34.7340    7.5050 C   0  0  0  0  0  0  0  0  0  0  0  0
    7.2820   35.0600    8.6610 C   0  0  0  0  0  0  0  0  0  0  0  0
    6.7020   36.3360    8.4430 O   0  0  0  0  0  0  0  0  0  0  0  0
    7.3930   37.2890    7.7800 C   0  0  0  0  0  0  0  0  0  0  0  0
    7.2230   37.5420    6.5860 O   0  0  0  0  0  0  0  0  0  0  0  0
    8.2990   37.9260    8.6380 N   0  0  0  0  0  0  0  0  0  0  0  0
    7.9860   39.1990    9.2960 C   0  0  0  0  0  0  0  0  0  0  0  0
    9.6280   37.3580    8.9000 C   0  0  0  0  0  0  0  0  0  0  0  0
   10.2080   37.8400   10.2090 C   0  0  0  0  0  0  0  0  0  0  0  0
   11.1170   38.8590   10.4310 C   0  0  0  0  0  0  0  0  0  0  0  0
   11.7590   39.7940    9.4560 C   0  0  0  0  0  0  0  0  0  0  0  0
   11.6600   41.0250    9.6500 O   0  0  0  0  0  0  0  0  0  0  0  0
   12.3650   39.3530    8.4550 O   0  0  0  0  0  1  0  0  0  0  0  0
   11.4180   38.9070   11.8090 N   0  0  0  0  0  0  0  0  0  0  0  0
   12.3180   39.8250   12.5130 C   0  0  0  0  0  0  0  0  0  0  0  0
   11.6400   40.7140   13.5640 C   0  0  0  0  0  0  0  0  0  0  0  0
   12.1790   40.8360   14.8690 C   0  0  0  0  0  0  0  0  0  0  0  0
   11.5610   41.6500   15.8340 C   0  0  0  0  0  0  0  0  0  0  0  0
   10.3910   42.3560   15.5120 C   0  0  0  0  0  0  0  0  0  0  0  0
    9.8350   42.2500   14.2230 C   0  0  0  0  0  0  0  0  0  0  0  0
    8.6590   42.9660   13.9180 C   0  0  0  0  0  0  0  0  0  0  0  0
    8.0860   42.8740   12.6370 C   0  0  0  0  0  0  0  0  0  0  0  0
    8.6900   42.0660   11.6570 C   0  0  0  0  0  0  0  0  0  0  0  0
    9.8640   41.3480   11.9560 C   0  0  0  0  0  0  0  0  0  0  0  0
   10.4540   41.4290   13.2410 C   0  0  0  0  0  0  0  0  0  0  0  0
   10.7010   37.9180   12.4690 C   0  0  0  0  0  0  0  0  0  0  0  0
   10.6530   37.5380   13.8270 C   0  0  0  0  0  0  0  0  0  0  0  0
    9.8160   36.4850   14.2310 C   0  0  0  0  0  0  0  0  0  0  0  0
    9.0290   35.8160   13.2780 C   0  0  0  0  0  0  0  0  0  0  0  0
    8.2170   34.8020   13.6610 F   0  0  0  0  0  0  0  0  0  0  0  0
    9.0850   36.1980   11.9230 C   0  0  0  0  0  0  0  0  0  0  0  0
    9.9240   37.2510   11.4850 C   0  0  0  0  0  0  0  0  0  0  0  0
    9.1990   34.4015    7.9079 H   0  0  0  0  0  0  0  0  0  0  0  0
    7.7962   33.9337    6.8882 H   0  0  0  0  0  0  0  0  0  0  0  0
    8.3798   35.6326    6.8882 H   0  0  0  0  0  0  0  0  0  0  0  0
    6.4891   34.2993    8.7117 H   0  0  0  0  0  0  0  0  0  0  0  0
    7.8416   35.0655    9.6080 H   0  0  0  0  0  0  0  0  0  0  0  0
    8.0188   39.0654   10.3874 H   0  0  0  0  0  0  0  0  0  0  0  0
    8.7244   39.9576    8.9970 H   0  0  0  0  0  0  0  0  0  0  0  0
    6.9800   39.5287    8.9970 H   0  0  0  0  0  0  0  0  0  0  0  0
    9.5444   36.2617    8.9322 H   0  0  0  0  0  0  0  0  0  0  0  0
   10.2997   37.6854    8.0927 H   0  0  0  0  0  0  0  0  0  0  0  0
   13.0901   39.2263   13.0184 H   0  0  0  0  0  0  0  0  0  0  0  0
   12.7249   40.5046   11.7497 H   0  0  0  0  0  0  0  0  0  0  0  0
   13.0947   40.2855   15.1306 H   0  0  0  0  0  0  0  0  0  0  0  0
   11.9942   41.7339   16.8416 H   0  0  0  0  0  0  0  0  0  0  0  0
    9.9081   42.9928   16.2678 H   0  0  0  0  0  0  0  0  0  0  0  0
    8.1882   43.5987   14.6848 H   0  0  0  0  0  0  0  0  0  0  0  0
    7.1679   43.4325   12.4021 H   0  0  0  0  0  0  0  0  0  0  0  0
    8.2441   41.9947   10.6540 H   0  0  0  0  0  0  0  0  0  0  0  0
   10.3278   40.7174   11.1832 H   0  0  0  0  0  0  0  0  0  0  0  0
   11.2705   38.0660   14.5686 H   0  0  0  0  0  0  0  0  0  0  0  0
    9.7766   36.1852   15.2886 H   0  0  0  0  0  0  0  0  0  0  0  0
    8.4626   35.6659   11.1885 H   0  0  0  0  0  0  0  0  0  0  0  0
  1  2  1  0
  2  3  1  0
  3  4  1  0
  4  5  2  0
  4  6  1  0
  6  7  1  0
  6  8  1  0
  8  9  1  0
  9 10  2  0
 10 11  1  0
 11 12  2  0
 11 13  1  0
 10 14  1  0
 14 15  1  0
 15 16  1  0
 16 17  2  0
 17 18  1  0
 18 19  2  0
 19 20  1  0
 20 21  2  0
 21 22  1  0
 22 23  2  0
 23 24  1  0
 24 25  2  0
 14 26  1  0
 26 27  2  0
 27 28  1  0
 28 29  2  0
 29 30  1  0
 29 31  1  0
 31 32  2  0
 32  9  1  0
 25 16  1  0
 32 26  1  0
 25 20  1  0
  1 33  1  0
  1 34  1  0
  1 35  1  0
  2 36  1  0
  2 37  1  0
  7 38  1  0
  7 39  1  0
  7 40  1  0
  8 41  1  0
  8 42  1  0
 15 43  1  0
 15 44  1  0
 17 45  1  0
 18 46  1  0
 19 47  1  0
 21 48  1  0
 22 49  1  0
 23 50  1  0
 24 51  1  0
 27 52  1  0
 28 53  1  0
 31 54  1  0
M  CHG  1  13  -1
M  END
>  <meeko>  (287) 
{"free_energy": -5.38, "intermolecular_energy": -7.77, "internal_energy": -2.18, "cluster_size": 86, "cluster_id": 25, "rank_in_cluster": 43}

$$$$

     RDKit          3D

 54 57  0  0  0  0  0  0  0  0999 V2000
    9.7060   36.3590   10.5100 C   0  0  0  0  0  0  0  0  0  0  0  0
   10.5370   37.4000   11.2630 C   0  0  0  0  0  0  0  0  0  0  0  0
    9.7730   38.5840   11.4190 O   0  0  0  0  0  0  0  0  0  0  0  0
   10.3680   39.7920   11.3180 C   0  0  0  0  0  0  0  0  0  0  0  0
   10.9790   40.3260   12.2460 O   0  0  0  0  0  0  0  0  0  0  0  0
   10.1920   40.3210   10.0330 N   0  0  0  0  0  0  0  0  0  0  0  0
    9.4520   39.6040    8.9890 C   0  0  0  0  0  0  0  0  0  0  0  0
   10.7720   41.6170    9.6570 C   0  0  0  0  0  0  0  0  0  0  0  0
   12.1350   41.4720    9.0240 C   0  0  0  0  0  0  0  0  0  0  0  0
   12.7210   42.2500    8.0400 C   0  0  0  0  0  0  0  0  0  0  0  0
   12.1970   43.4690    7.3490 C   0  0  0  0  0  0  0  0  0  0  0  0
   12.0320   43.4320    6.1110 O   0  0  0  0  0  0  0  0  0  0  0  0
   11.9460   44.5090    7.9960 O   0  0  0  0  0  1  0  0  0  0  0  0
   13.9800   41.7000    7.7160 N   0  0  0  0  0  0  0  0  0  0  0  0
   14.9610   42.1840    6.7410 C   0  0  0  0  0  0  0  0  0  0  0  0
   16.4160   41.8020    7.0460 C   0  0  0  0  0  0  0  0  0  0  0  0
   17.0140   42.1500    8.2830 C   0  0  0  0  0  0  0  0  0  0  0  0
   18.3460   41.8020    8.5670 C   0  0  0  0  0  0  0  0  0  0  0  0
   19.1060   41.1010    7.6170 C   0  0  0  0  0  0  0  0  0  0  0  0
   18.5350   40.7450    6.3810 C   0  0  0  0  0  0  0  0  0  0  0  0
   19.3130   40.0410    5.4390 C   0  0  0  0  0  0  0  0  0  0  0  0
   18.7640   39.6760    4.1970 C   0  0  0  0  0  0  0  0  0  0  0  0
   17.4330   40.0140    3.8940 C   0  0  0  0  0  0  0  0  0  0  0  0
   16.6510   40.7170    4.8300 C   0  0  0  0  0  0  0  0  0  0  0  0
   17.1880   41.0930    6.0860 C   0  0  0  0  0  0  0  0  0  0  0  0
   14.1990   40.5690    8.4910 C   0  0  0  0  0  0  0  0  0  0  0  0
   15.2760   39.6600    8.5450 C   0  0  0  0  0  0  0  0  0  0  0  0
   15.2410   38.5850    9.4490 C   0  0  0  0  0  0  0  0  0  0  0  0
   14.1320   38.4230   10.2970 C   0  0  0  0  0  0  0  0  0  0  0  0
   14.0940   37.3910   11.1730 F   0  0  0  0  0  0  0  0  0  0  0  0
   13.0580   39.3320   10.2350 C   0  0  0  0  0  0  0  0  0  0  0  0
   13.0610   40.4210    9.3290 C   0  0  0  0  0  0  0  0  0  0  0  0
    9.1885   35.7107   11.2324 H   0  0  0  0  0  0  0  0  0  0  0  0
    8.9641   36.8693    9.8781 H   0  0  0  0  0  0  0  0  0  0  0  0
   10.3680   35.7487    9.8781 H   0  0  0  0  0  0  0  0  0  0  0  0
   10.8107   37.0059   12.2529 H   0  0  0  0  0  0  0  0  0  0  0  0
   11.4518   37.6234   10.6945 H   0  0  0  0  0  0  0  0  0  0  0  0
    8.7369   38.9111    9.4565 H   0  0  0  0  0  0  0  0  0  0  0  0
    8.9071   40.3266    8.3638 H   0  0  0  0  0  0  0  0  0  0  0  0
   10.1571   39.0366    8.3638 H   0  0  0  0  0  0  0  0  0  0  0  0
   10.0996   42.1110    8.9401 H   0  0  0  0  0  0  0  0  0  0  0  0
   10.8883   42.2128   10.5743 H   0  0  0  0  0  0  0  0  0  0  0  0
   14.6978   41.7696    5.7566 H   0  0  0  0  0  0  0  0  0  0  0  0
   14.9159   43.2825    6.7764 H   0  0  0  0  0  0  0  0  0  0  0  0
   16.4267   42.7009    9.0324 H   0  0  0  0  0  0  0  0  0  0  0  0
   18.7928   42.0788    9.5333 H   0  0  0  0  0  0  0  0  0  0  0  0
   20.1487   40.8298    7.8391 H   0  0  0  0  0  0  0  0  0  0  0  0
   20.3538   39.7762    5.6768 H   0  0  0  0  0  0  0  0  0  0  0  0
   19.3741   39.1275    3.4643 H   0  0  0  0  0  0  0  0  0  0  0  0
   17.0018   39.7284    2.9232 H   0  0  0  0  0  0  0  0  0  0  0  0
   15.6111   40.9774    4.5834 H   0  0  0  0  0  0  0  0  0  0  0  0
   16.1423   39.7925    7.8802 H   0  0  0  0  0  0  0  0  0  0  0  0
   16.0783   37.8730    9.4929 H   0  0  0  0  0  0  0  0  0  0  0  0
   12.1971   39.1932   10.9055 H   0  0  0  0  0  0  0  0  0  0  0  0
  1  2  1  0
  2  3  1  0
  3  4  1  0
  4  5  2  0
  4  6  1  0
  6  7  1  0
  6  8  1  0
  8  9  1  0
  9 10  2  0
 10 11  1  0
 11 12  2  0
 11 13  1  0
 10 14  1  0
 14 15  1  0
 15 16  1  0
 16 17  2  0
 17 18  1  0
 18 19  2  0
 19 20  1  0
 20 21  2  0
 21 22  1  0
 22 23  2  0
 23 24  1  0
 24 25  2  0
 14 26  1  0
 26 27  2  0
 27 28  1  0
 28 29  2  0
 29 30  1  0
 29 31  1  0
 31 32  2  0
 32  9  1  0
 25 16  1  0
 32 26  1  0
 25 20  1  0
  1 33  1  0
  1 34  1  0
  1 35  1  0
  2 36  1  0
  2 37  1  0
  7 38  1  0
  7 39  1  0
  7 40  1  0
  8 41  1  0
  8 42  1  0
 15 43  1  0
 15 44  1  0
 17 45  1  0
 18 46  1  0
 19 47  1  0
 21 48  1  0
 22 49  1  0
 23 50  1  0
 24 51  1  0
 27 52  1  0
 28 53  1  0
 31 54  1  0
M  CHG  1  13  -1
M  END
>  <meeko>  (288) 
{"free_energy": -5.4, "intermolecular_energy": -7.79, "internal_energy": -1.38, "cluster_size": 64, "cluster_id": 66, "rank_in_cluster": 26}

$$$$

     RDKit          3D

 54 57  0  0  0  0  0  0  0  0999 V2000
    7.7280   36.6220   19.0750 C   0  0  0  0  0  0  0  0  0  0  0  0
    6.5860   35.6080   18.9690 C   0  0  0  0  0  0  0  0  0  0  0  0
    6.8600   34.7060   17.9090 O   0  0  0  0  0  0  0  0  0  0  0  0
    7.3990   35.1590   16.7570 C   0  0  0  0  0  0  0  0  0  0  0  0
    6.9690   36.1390   16.1470 O   0  0  0  0  0  0  0  0  0  0  0  0
    8.4930   34.3680   16.3820 N   0  0  0  0  0  0  0  0  0  0  0  0
    9.2730   33.6010   17.3600 C   0  0  0  0  0  0  0  0  0  0  0  0
    8.9340   34.2910   14.9830 C   0  0  0  0  0  0  0  0  0  0  0  0
    9.7750   35.4800   14.5820 C   0  0  0  0  0  0  0  0  0  0  0  0
   10.8500   36.0450   15.2470 C   0  0  0  0  0  0  0  0  0  0  0  0
   11.5070   35.6280   16.5240 C   0  0  0  0  0  0  0  0  0  0  0  0
   12.2050   34.5910   16.5300 O   0  0  0  0  0  0  0  0  0  0  0  0
   11.3460   36.2940   17.5700 O   0  0  0  0  0  1  0  0  0  0  0  0
   11.2830   37.1790   14.5280 N   0  0  0  0  0  0  0  0  0  0  0  0
   12.3910   38.0870   14.8400 C   0  0  0  0  0  0  0  0  0  0  0  0
   11.9850   39.5510   15.0510 C   0  0  0  0  0  0  0  0  0  0  0  0
   12.5160   40.5770   14.2300 C   0  0  0  0  0  0  0  0  0  0  0  0
   12.1470   41.9200   14.4200 C   0  0  0  0  0  0  0  0  0  0  0  0
   11.2420   42.2630   15.4370 C   0  0  0  0  0  0  0  0  0  0  0  0
   10.7020   41.2620   16.2670 C   0  0  0  0  0  0  0  0  0  0  0  0
    9.7940   41.6240   17.2840 C   0  0  0  0  0  0  0  0  0  0  0  0
    9.2430   40.6410   18.1250 C   0  0  0  0  0  0  0  0  0  0  0  0
    9.5980   39.2920   17.9500 C   0  0  0  0  0  0  0  0  0  0  0  0
   10.5050   38.9240   16.9370 C   0  0  0  0  0  0  0  0  0  0  0  0
   11.0690   39.9010   16.0810 C   0  0  0  0  0  0  0  0  0  0  0  0
   10.4850   37.3410   13.4030 C   0  0  0  0  0  0  0  0  0  0  0  0
   10.4890   38.3110   12.3790 C   0  0  0  0  0  0  0  0  0  0  0  0
    9.5550   38.2290   11.3330 C   0  0  0  0  0  0  0  0  0  0  0  0
    8.6220   37.1780   11.3120 C   0  0  0  0  0  0  0  0  0  0  0  0
    7.7210   37.0910   10.3050 F   0  0  0  0  0  0  0  0  0  0  0  0
    8.6220   36.2150   12.3400 C   0  0  0  0  0  0  0  0  0  0  0  0
    9.5460   36.2750   13.4110 C   0  0  0  0  0  0  0  0  0  0  0  0
    7.9478   36.8172   20.1350 H   0  0  0  0  0  0  0  0  0  0  0  0
    8.6247   36.2171   18.5831 H   0  0  0  0  0  0  0  0  0  0  0  0
    7.4320   37.5603   18.5831 H   0  0  0  0  0  0  0  0  0  0  0  0
    6.5001   35.0506   19.9134 H   0  0  0  0  0  0  0  0  0  0  0  0
    5.6410   36.1350   18.7708 H   0  0  0  0  0  0  0  0  0  0  0  0
    8.9750   33.8940   18.3775 H   0  0  0  0  0  0  0  0  0  0  0  0
    9.0846   32.5266   17.2178 H   0  0  0  0  0  0  0  0  0  0  0  0
   10.3441   33.8074   17.2178 H   0  0  0  0  0  0  0  0  0  0  0  0
    9.5289   33.3754   14.8493 H   0  0  0  0  0  0  0  0  0  0  0  0
    8.0367   34.2829   14.3467 H   0  0  0  0  0  0  0  0  0  0  0  0
   12.8762   37.7307   15.7607 H   0  0  0  0  0  0  0  0  0  0  0  0
   13.0569   38.0741   13.9645 H   0  0  0  0  0  0  0  0  0  0  0  0
   13.2276   40.3185   13.4321 H   0  0  0  0  0  0  0  0  0  0  0  0
   12.5676   42.7026   13.7715 H   0  0  0  0  0  0  0  0  0  0  0  0
   10.9546   43.3144   15.5855 H   0  0  0  0  0  0  0  0  0  0  0  0
    9.5158   42.6796   17.4197 H   0  0  0  0  0  0  0  0  0  0  0  0
    8.5360   40.9268   18.9178 H   0  0  0  0  0  0  0  0  0  0  0  0
    9.1663   38.5217   18.6060 H   0  0  0  0  0  0  0  0  0  0  0  0
   10.7782   37.8661   16.8095 H   0  0  0  0  0  0  0  0  0  0  0  0
   11.2225   39.1305   12.3995 H   0  0  0  0  0  0  0  0  0  0  0  0
    9.5538   38.9844   10.5334 H   0  0  0  0  0  0  0  0  0  0  0  0
    7.8869   35.3972   12.3100 H   0  0  0  0  0  0  0  0  0  0  0  0
  1  2  1  0
  2  3  1  0
  3  4  1  0
  4  5  2  0
  4  6  1  0
  6  7  1  0
  6  8  1  0
  8  9  1  0
  9 10  2  0
 10 11  1  0
 11 12  2  0
 11 13  1  0
 10 14  1  0
 14 15  1  0
 15 16  1  0
 16 17  2  0
 17 18  1  0
 18 19  2  0
 19 20  1  0
 20 21  2  0
 21 22  1  0
 22 23  2  0
 23 24  1  0
 24 25  2  0
 14 26  1  0
 26 27  2  0
 27 28  1  0
 28 29  2  0
 29 30  1  0
 29 31  1  0
 31 32  2  0
 32  9  1  0
 25 16  1  0
 32 26  1  0
 25 20  1  0
  1 33  1  0
  1 34  1  0
  1 35  1  0
  2 36  1  0
  2 37  1  0
  7 38  1  0
  7 39  1  0
  7 40  1  0
  8 41  1  0
  8 42  1  0
 15 43  1  0
 15 44  1  0
 17 45  1  0
 18 46  1  0
 19 47  1  0
 21 48  1  0
 22 49  1  0
 23 50  1  0
 24 51  1  0
 27 52  1  0
 28 53  1  0
 31 54  1  0
M  CHG  1  13  -1
M  END
>  <meeko>  (289) 
{"free_energy": -4.68, "intermolecular_energy": -7.06, "internal_energy": -2.38, "cluster_size": 26, "cluster_id": 86, "rank_in_cluster": 14}

$$$$

     RDKit          3D

 54 57  0  0  0  0  0  0  0  0999 V2000
    7.2440   37.9560    7.2430 C   0  0  0  0  0  0  0  0  0  0  0  0
    7.7420   37.8780    8.6880 C   0  0  0  0  0  0  0  0  0  0  0  0
    9.0850   37.4220    8.6950 O   0  0  0  0  0  0  0  0  0  0  0  0
    9.4330   36.3520    9.4420 C   0  0  0  0  0  0  0  0  0  0  0  0
    9.2180   35.1880    9.1000 O   0  0  0  0  0  0  0  0  0  0  0  0
   10.0600   36.7630   10.6250 N   0  0  0  0  0  0  0  0  0  0  0  0
   10.7050   35.8110   11.5370 C   0  0  0  0  0  0  0  0  0  0  0  0
   10.0780   38.1750   11.0280 C   0  0  0  0  0  0  0  0  0  0  0  0
   11.3070   38.8970   10.5270 C   0  0  0  0  0  0  0  0  0  0  0  0
   11.4450   40.2270   10.1680 C   0  0  0  0  0  0  0  0  0  0  0  0
   10.4380   41.3330   10.2020 C   0  0  0  0  0  0  0  0  0  0  0  0
    9.5500   41.3100   11.0810 O   0  0  0  0  0  0  0  0  0  0  0  0
   10.4740   42.2530    9.3550 O   0  0  0  0  0  1  0  0  0  0  0  0
   12.7590   40.4360    9.6990 N   0  0  0  0  0  0  0  0  0  0  0  0
   13.3670   41.6810    9.2200 C   0  0  0  0  0  0  0  0  0  0  0  0
   13.3320   41.8730    7.6980 C   0  0  0  0  0  0  0  0  0  0  0  0
   13.7590   40.8400    6.8270 C   0  0  0  0  0  0  0  0  0  0  0  0
   13.7290   41.0110    5.4320 C   0  0  0  0  0  0  0  0  0  0  0  0
   13.2730   42.2200    4.8820 C   0  0  0  0  0  0  0  0  0  0  0  0
   12.8450   43.2610    5.7270 C   0  0  0  0  0  0  0  0  0  0  0  0
   12.3910   44.4690    5.1580 C   0  0  0  0  0  0  0  0  0  0  0  0
   11.9590   45.5230    5.9820 C   0  0  0  0  0  0  0  0  0  0  0  0
   11.9810   45.3710    7.3800 C   0  0  0  0  0  0  0  0  0  0  0  0
   12.4340   44.1680    7.9550 C   0  0  0  0  0  0  0  0  0  0  0  0
   12.8720   43.0960    7.1390 C   0  0  0  0  0  0  0  0  0  0  0  0
   13.4630   39.2400    9.7580 C   0  0  0  0  0  0  0  0  0  0  0  0
   14.7860   38.9100    9.4000 C   0  0  0  0  0  0  0  0  0  0  0  0
   15.2520   37.5960    9.5770 C   0  0  0  0  0  0  0  0  0  0  0  0
   14.3960   36.6190   10.1120 C   0  0  0  0  0  0  0  0  0  0  0  0
   14.8400   35.3520   10.2880 F   0  0  0  0  0  0  0  0  0  0  0  0
   13.0740   36.9560   10.4640 C   0  0  0  0  0  0  0  0  0  0  0  0
   12.5740   38.2690   10.2910 C   0  0  0  0  0  0  0  0  0  0  0  0
    6.1573   38.1262    7.2384 H   0  0  0  0  0  0  0  0  0  0  0  0
    7.7474   38.7863    6.7260 H   0  0  0  0  0  0  0  0  0  0  0  0
    7.4694   37.0116    6.7260 H   0  0  0  0  0  0  0  0  0  0  0  0
    7.6897   38.8752    9.1494 H   0  0  0  0  0  0  0  0  0  0  0  0
    7.1119   37.1798    9.2586 H   0  0  0  0  0  0  0  0  0  0  0  0
   10.5047   36.1067   12.5774 H   0  0  0  0  0  0  0  0  0  0  0  0
   10.3033   34.8026   11.3586 H   0  0  0  0  0  0  0  0  0  0  0  0
   11.7904   35.8102   11.3586 H   0  0  0  0  0  0  0  0  0  0  0  0
    9.1850   38.6710   10.6200 H   0  0  0  0  0  0  0  0  0  0  0  0
   10.0900   38.2118   12.1273 H   0  0  0  0  0  0  0  0  0  0  0  0
   12.8317   42.5230    9.6831 H   0  0  0  0  0  0  0  0  0  0  0  0
   14.4295   41.6335    9.5007 H   0  0  0  0  0  0  0  0  0  0  0  0
   14.1193   39.8901    7.2488 H   0  0  0  0  0  0  0  0  0  0  0  0
   14.0628   40.1976    4.7710 H   0  0  0  0  0  0  0  0  0  0  0  0
   13.2503   42.3535    3.7904 H   0  0  0  0  0  0  0  0  0  0  0  0
   12.3748   44.5870    4.0645 H   0  0  0  0  0  0  0  0  0  0  0  0
   11.6049   46.4635    5.5347 H   0  0  0  0  0  0  0  0  0  0  0  0
   11.6433   46.1945    8.0264 H   0  0  0  0  0  0  0  0  0  0  0  0
   12.4479   44.0595    9.0495 H   0  0  0  0  0  0  0  0  0  0  0  0
   15.4523   39.6795    8.9829 H   0  0  0  0  0  0  0  0  0  0  0  0
   16.2831   37.3335    9.2977 H   0  0  0  0  0  0  0  0  0  0  0  0
   12.4153   36.1810   10.8829 H   0  0  0  0  0  0  0  0  0  0  0  0
  1  2  1  0
  2  3  1  0
  3  4  1  0
  4  5  2  0
  4  6  1  0
  6  7  1  0
  6  8  1  0
  8  9  1  0
  9 10  2  0
 10 11  1  0
 11 12  2  0
 11 13  1  0
 10 14  1  0
 14 15  1  0
 15 16  1  0
 16 17  2  0
 17 18  1  0
 18 19  2  0
 19 20  1  0
 20 21  2  0
 21 22  1  0
 22 23  2  0
 23 24  1  0
 24 25  2  0
 14 26  1  0
 26 27  2  0
 27 28  1  0
 28 29  2  0
 29 30  1  0
 29 31  1  0
 31 32  2  0
 32  9  1  0
 25 16  1  0
 32 26  1  0
 25 20  1  0
  1 33  1  0
  1 34  1  0
  1 35  1  0
  2 36  1  0
  2 37  1  0
  7 38  1  0
  7 39  1  0
  7 40  1  0
  8 41  1  0
  8 42  1  0
 15 43  1  0
 15 44  1  0
 17 45  1  0
 18 46  1  0
 19 47  1  0
 21 48  1  0
 22 49  1  0
 23 50  1  0
 24 51  1  0
 27 52  1  0
 28 53  1  0
 31 54  1  0
M  CHG  1  13  -1
M  END
>  <meeko>  (290) 
{"free_energy": -5.67, "intermolecular_energy": -8.06, "internal_energy": -1.52, "cluster_size": 64, "cluster_id": 66, "rank_in_cluster": 16}

$$$$

     RDKit          3D

 54 57  0  0  0  0  0  0  0  0999 V2000
    4.7450   44.5180   14.5520 C   0  0  0  0  0  0  0  0  0  0  0  0
    5.7760   43.8630   15.4750 C   0  0  0  0  0  0  0  0  0  0  0  0
    6.8510   43.3650   14.6950 O   0  0  0  0  0  0  0  0  0  0  0  0
    7.9690   44.1040   14.5320 C   0  0  0  0  0  0  0  0  0  0  0  0
    7.9720   45.2240   14.0190 O   0  0  0  0  0  0  0  0  0  0  0  0
    9.0860   43.4220   15.0300 N   0  0  0  0  0  0  0  0  0  0  0  0
    9.0100   42.5600   16.2150 C   0  0  0  0  0  0  0  0  0  0  0  0
   10.4060   43.5590   14.4000 C   0  0  0  0  0  0  0  0  0  0  0  0
   10.6050   42.5790   13.2680 C   0  0  0  0  0  0  0  0  0  0  0  0
    9.7160   42.2110   12.2740 C   0  0  0  0  0  0  0  0  0  0  0  0
    8.3260   42.6960   12.0110 C   0  0  0  0  0  0  0  0  0  0  0  0
    7.3980   41.8600   11.9600 O   0  0  0  0  0  0  0  0  0  0  0  0
    8.1000   43.9120   11.8250 O   0  0  0  0  0  1  0  0  0  0  0  0
   10.3160   41.2150   11.4740 N   0  0  0  0  0  0  0  0  0  0  0  0
    9.7620   40.5330   10.3010 C   0  0  0  0  0  0  0  0  0  0  0  0
    9.3700   39.0670   10.5330 C   0  0  0  0  0  0  0  0  0  0  0  0
    9.7690   38.3870   11.7100 C   0  0  0  0  0  0  0  0  0  0  0  0
    9.4130   37.0450   11.9270 C   0  0  0  0  0  0  0  0  0  0  0  0
    8.6530   36.3570   10.9670 C   0  0  0  0  0  0  0  0  0  0  0  0
    8.2460   37.0100    9.7890 C   0  0  0  0  0  0  0  0  0  0  0  0
    7.4830   36.3030    8.8360 C   0  0  0  0  0  0  0  0  0  0  0  0
    7.0670   36.9350    7.6510 C   0  0  0  0  0  0  0  0  0  0  0  0
    7.4120   38.2780    7.4170 C   0  0  0  0  0  0  0  0  0  0  0  0
    8.1740   38.9890    8.3630 C   0  0  0  0  0  0  0  0  0  0  0  0
    8.6020   38.3680    9.5630 C   0  0  0  0  0  0  0  0  0  0  0  0
   11.5900   40.9460   11.9570 C   0  0  0  0  0  0  0  0  0  0  0  0
   12.5840   40.0400   11.5330 C   0  0  0  0  0  0  0  0  0  0  0  0
   13.8120   39.9790   12.2120 C   0  0  0  0  0  0  0  0  0  0  0  0
   14.0440   40.8240   13.3100 C   0  0  0  0  0  0  0  0  0  0  0  0
   15.2270   40.7730   13.9670 F   0  0  0  0  0  0  0  0  0  0  0  0
   13.0450   41.7240   13.7300 C   0  0  0  0  0  0  0  0  0  0  0  0
   11.7950   41.8040   13.0700 C   0  0  0  0  0  0  0  0  0  0  0  0
    3.9703   45.0102   15.1584 H   0  0  0  0  0  0  0  0  0  0  0  0
    5.2436   45.2653   13.9172 H   0  0  0  0  0  0  0  0  0  0  0  0
    4.2803   43.7491   13.9172 H   0  0  0  0  0  0  0  0  0  0  0  0
    6.1548   44.6077   16.1905 H   0  0  0  0  0  0  0  0  0  0  0  0
    5.3053   43.0357   16.0264 H   0  0  0  0  0  0  0  0  0  0  0  0
    9.0646   43.1789   17.1227 H   0  0  0  0  0  0  0  0  0  0  0  0
    8.0596   42.0063   16.2053 H   0  0  0  0  0  0  0  0  0  0  0  0
    9.8489   41.8486   16.2053 H   0  0  0  0  0  0  0  0  0  0  0  0
   10.5051   44.5808   14.0049 H   0  0  0  0  0  0  0  0  0  0  0  0
   11.1677   43.3487   15.1652 H   0  0  0  0  0  0  0  0  0  0  0  0
    8.8637   41.0805    9.9796 H   0  0  0  0  0  0  0  0  0  0  0  0
   10.5595   40.5237    9.5434 H   0  0  0  0  0  0  0  0  0  0  0  0
   10.3667   38.9177   12.4657 H   0  0  0  0  0  0  0  0  0  0  0  0
    9.7294   36.5337   12.8481 H   0  0  0  0  0  0  0  0  0  0  0  0
    8.3755   35.3061   11.1363 H   0  0  0  0  0  0  0  0  0  0  0  0
    7.2124   35.2529    9.0208 H   0  0  0  0  0  0  0  0  0  0  0  0
    6.4734   36.3806    6.9092 H   0  0  0  0  0  0  0  0  0  0  0  0
    7.0852   38.7746    6.4915 H   0  0  0  0  0  0  0  0  0  0  0  0
    8.4403   40.0384    8.1688 H   0  0  0  0  0  0  0  0  0  0  0  0
   12.3978   39.3818   10.6715 H   0  0  0  0  0  0  0  0  0  0  0  0
   14.5891   39.2723   11.8853 H   0  0  0  0  0  0  0  0  0  0  0  0
   13.2407   42.3800   14.5910 H   0  0  0  0  0  0  0  0  0  0  0  0
  1  2  1  0
  2  3  1  0
  3  4  1  0
  4  5  2  0
  4  6  1  0
  6  7  1  0
  6  8  1  0
  8  9  1  0
  9 10  2  0
 10 11  1  0
 11 12  2  0
 11 13  1  0
 10 14  1  0
 14 15  1  0
 15 16  1  0
 16 17  2  0
 17 18  1  0
 18 19  2  0
 19 20  1  0
 20 21  2  0
 21 22  1  0
 22 23  2  0
 23 24  1  0
 24 25  2  0
 14 26  1  0
 26 27  2  0
 27 28  1  0
 28 29  2  0
 29 30  1  0
 29 31  1  0
 31 32  2  0
 32  9  1  0
 25 16  1  0
 32 26  1  0
 25 20  1  0
  1 33  1  0
  1 34  1  0
  1 35  1  0
  2 36  1  0
  2 37  1  0
  7 38  1  0
  7 39  1  0
  7 40  1  0
  8 41  1  0
  8 42  1  0
 15 43  1  0
 15 44  1  0
 17 45  1  0
 18 46  1  0
 19 47  1  0
 21 48  1  0
 22 49  1  0
 23 50  1  0
 24 51  1  0
 27 52  1  0
 28 53  1  0
 31 54  1  0
M  CHG  1  13  -1
M  END
>  <meeko>  (291) 
{"free_energy": -5.39, "intermolecular_energy": -7.77, "internal_energy": -1.22, "cluster_size": 20, "cluster_id": 43, "rank_in_cluster": 9}

$$$$

     RDKit          3D

 54 57  0  0  0  0  0  0  0  0999 V2000
   17.1570   39.0050   10.7810 C   0  0  0  0  0  0  0  0  0  0  0  0
   15.8230   38.3500   10.4130 C   0  0  0  0  0  0  0  0  0  0  0  0
   14.7590   39.1590   10.8880 O   0  0  0  0  0  0  0  0  0  0  0  0
   14.4410   39.1560   12.2000 C   0  0  0  0  0  0  0  0  0  0  0  0
   15.2540   38.9200   13.0940 O   0  0  0  0  0  0  0  0  0  0  0  0
   13.0850   39.4610   12.3770 N   0  0  0  0  0  0  0  0  0  0  0  0
   12.1220   38.4730   12.8790 C   0  0  0  0  0  0  0  0  0  0  0  0
   12.5510   40.7870   12.0390 C   0  0  0  0  0  0  0  0  0  0  0  0
   11.1270   40.7200   11.5390 C   0  0  0  0  0  0  0  0  0  0  0  0
   10.5820   39.8820   10.5830 C   0  0  0  0  0  0  0  0  0  0  0  0
   11.2280   38.7840    9.7980 C   0  0  0  0  0  0  0  0  0  0  0  0
   11.1600   37.6140   10.2330 O   0  0  0  0  0  0  0  0  0  0  0  0
   11.8390   39.0350    8.7360 O   0  0  0  0  0  1  0  0  0  0  0  0
    9.2260   40.2250   10.3980 N   0  0  0  0  0  0  0  0  0  0  0  0
    8.2450   39.6090    9.4990 C   0  0  0  0  0  0  0  0  0  0  0  0
    8.0770   38.0940    9.6690 C   0  0  0  0  0  0  0  0  0  0  0  0
    8.3450   37.4680   10.9130 C   0  0  0  0  0  0  0  0  0  0  0  0
    8.1910   36.0810   11.0730 C   0  0  0  0  0  0  0  0  0  0  0  0
    7.7690   35.2910    9.9910 C   0  0  0  0  0  0  0  0  0  0  0  0
    7.4980   35.8880    8.7460 C   0  0  0  0  0  0  0  0  0  0  0  0
    7.0750   35.0800    7.6700 C   0  0  0  0  0  0  0  0  0  0  0  0
    6.7990   35.6540    6.4170 C   0  0  0  0  0  0  0  0  0  0  0  0
    6.9460   37.0410    6.2370 C   0  0  0  0  0  0  0  0  0  0  0  0
    7.3680   37.8540    7.3060 C   0  0  0  0  0  0  0  0  0  0  0  0
    7.6500   37.2920    8.5750 C   0  0  0  0  0  0  0  0  0  0  0  0
    8.9030   41.2840   11.2360 C   0  0  0  0  0  0  0  0  0  0  0  0
    7.7030   42.0010   11.4250 C   0  0  0  0  0  0  0  0  0  0  0  0
    7.6510   43.0440   12.3650 C   0  0  0  0  0  0  0  0  0  0  0  0
    8.7970   43.3650   13.1130 C   0  0  0  0  0  0  0  0  0  0  0  0
    8.7520   44.3670   14.0230 F   0  0  0  0  0  0  0  0  0  0  0  0
    9.9920   42.6480   12.9160 C   0  0  0  0  0  0  0  0  0  0  0  0
   10.0780   41.5960   11.9710 C   0  0  0  0  0  0  0  0  0  0  0  0
   17.2527   39.0520   11.8758 H   0  0  0  0  0  0  0  0  0  0  0  0
   17.9842   38.4106   10.3658 H   0  0  0  0  0  0  0  0  0  0  0  0
   17.1925   40.0230   10.3658 H   0  0  0  0  0  0  0  0  0  0  0  0
   15.7507   38.2517    9.3198 H   0  0  0  0  0  0  0  0  0  0  0  0
   15.7621   37.3524   10.8725 H   0  0  0  0  0  0  0  0  0  0  0  0
   12.1290   38.4802   13.9790 H   0  0  0  0  0  0  0  0  0  0  0  0
   11.1146   38.7262   12.5171 H   0  0  0  0  0  0  0  0  0  0  0  0
   12.4009   37.4724   12.5171 H   0  0  0  0  0  0  0  0  0  0  0  0
   12.5811   41.4203   12.9379 H   0  0  0  0  0  0  0  0  0  0  0  0
   13.1719   41.2049   11.2329 H   0  0  0  0  0  0  0  0  0  0  0  0
    7.2695   40.0837    9.6806 H   0  0  0  0  0  0  0  0  0  0  0  0
    8.6212   39.7655    8.4773 H   0  0  0  0  0  0  0  0  0  0  0  0
    8.6785   38.0779   11.7655 H   0  0  0  0  0  0  0  0  0  0  0  0
    8.4010   35.6133   12.0462 H   0  0  0  0  0  0  0  0  0  0  0  0
    7.6503   34.2047   10.1170 H   0  0  0  0  0  0  0  0  0  0  0  0
    6.9605   33.9953    7.8122 H   0  0  0  0  0  0  0  0  0  0  0  0
    6.4692   35.0207    5.5803 H   0  0  0  0  0  0  0  0  0  0  0  0
    6.7304   37.4923    5.2573 H   0  0  0  0  0  0  0  0  0  0  0  0
    7.4799   38.9377    7.1540 H   0  0  0  0  0  0  0  0  0  0  0  0
    6.8093   41.7440   10.8374 H   0  0  0  0  0  0  0  0  0  0  0  0
    6.7178   43.6067   12.5149 H   0  0  0  0  0  0  0  0  0  0  0  0
   10.8800   42.9106   13.5097 H   0  0  0  0  0  0  0  0  0  0  0  0
  1  2  1  0
  2  3  1  0
  3  4  1  0
  4  5  2  0
  4  6  1  0
  6  7  1  0
  6  8  1  0
  8  9  1  0
  9 10  2  0
 10 11  1  0
 11 12  2  0
 11 13  1  0
 10 14  1  0
 14 15  1  0
 15 16  1  0
 16 17  2  0
 17 18  1  0
 18 19  2  0
 19 20  1  0
 20 21  2  0
 21 22  1  0
 22 23  2  0
 23 24  1  0
 24 25  2  0
 14 26  1  0
 26 27  2  0
 27 28  1  0
 28 29  2  0
 29 30  1  0
 29 31  1  0
 31 32  2  0
 32  9  1  0
 25 16  1  0
 32 26  1  0
 25 20  1  0
  1 33  1  0
  1 34  1  0
  1 35  1  0
  2 36  1  0
  2 37  1  0
  7 38  1  0
  7 39  1  0
  7 40  1  0
  8 41  1  0
  8 42  1  0
 15 43  1  0
 15 44  1  0
 17 45  1  0
 18 46  1  0
 19 47  1  0
 21 48  1  0
 22 49  1  0
 23 50  1  0
 24 51  1  0
 27 52  1  0
 28 53  1  0
 31 54  1  0
M  CHG  1  13  -1
M  END
>  <meeko>  (292) 
{"free_energy": -7.7, "intermolecular_energy": -10.08, "internal_energy": -1.59, "cluster_size": 417, "cluster_id": 2, "rank_in_cluster": 23}

$$$$

     RDKit          3D

 54 57  0  0  0  0  0  0  0  0999 V2000
   10.2730   41.6980   14.8550 C   0  0  0  0  0  0  0  0  0  0  0  0
   10.6700   41.6880   16.3330 C   0  0  0  0  0  0  0  0  0  0  0  0
   11.8890   40.9810   16.4850 O   0  0  0  0  0  0  0  0  0  0  0  0
   11.9910   39.7070   16.0500 C   0  0  0  0  0  0  0  0  0  0  0  0
   11.4720   38.7500   16.6260 O   0  0  0  0  0  0  0  0  0  0  0  0
   12.7490   39.6490   14.8730 N   0  0  0  0  0  0  0  0  0  0  0  0
   13.5240   40.7960   14.3870 C   0  0  0  0  0  0  0  0  0  0  0  0
   12.7820   38.4350   14.0470 C   0  0  0  0  0  0  0  0  0  0  0  0
   11.8810   38.5400   12.8390 C   0  0  0  0  0  0  0  0  0  0  0  0
   10.5120   38.3560   12.7600 C   0  0  0  0  0  0  0  0  0  0  0  0
    9.5290   38.0370   13.8410 C   0  0  0  0  0  0  0  0  0  0  0  0
    9.2910   38.9020   14.7110 O   0  0  0  0  0  0  0  0  0  0  0  0
    8.9700   36.9190   13.8840 O   0  0  0  0  0  1  0  0  0  0  0  0
   10.1120   38.4940   11.4130 N   0  0  0  0  0  0  0  0  0  0  0  0
    8.7630   38.3940   10.8490 C   0  0  0  0  0  0  0  0  0  0  0  0
    8.5540   37.2200    9.8830 C   0  0  0  0  0  0  0  0  0  0  0  0
    8.9160   35.9010   10.2540 C   0  0  0  0  0  0  0  0  0  0  0  0
    8.7260   34.8230    9.3720 C   0  0  0  0  0  0  0  0  0  0  0  0
    8.1720   35.0450    8.1010 C   0  0  0  0  0  0  0  0  0  0  0  0
    7.8050   36.3460    7.7090 C   0  0  0  0  0  0  0  0  0  0  0  0
    7.2510   36.5510    6.4280 C   0  0  0  0  0  0  0  0  0  0  0  0
    6.8780   37.8420    6.0150 C   0  0  0  0  0  0  0  0  0  0  0  0
    7.0590   38.9330    6.8830 C   0  0  0  0  0  0  0  0  0  0  0  0
    7.6130   38.7360    8.1630 C   0  0  0  0  0  0  0  0  0  0  0  0
    7.9940   37.4420    8.5950 C   0  0  0  0  0  0  0  0  0  0  0  0
   11.2270   38.7660   10.6300 C   0  0  0  0  0  0  0  0  0  0  0  0
   11.3730   38.9730    9.2430 C   0  0  0  0  0  0  0  0  0  0  0  0
   12.6410   39.2450    8.7050 C   0  0  0  0  0  0  0  0  0  0  0  0
   13.7590   39.3110    9.5550 C   0  0  0  0  0  0  0  0  0  0  0  0
   14.9840   39.5760    9.0430 F   0  0  0  0  0  0  0  0  0  0  0  0
   13.6060   39.0990   10.9390 C   0  0  0  0  0  0  0  0  0  0  0  0
   12.3410   38.8160   11.5090 C   0  0  0  0  0  0  0  0  0  0  0  0
    9.1766   41.7256   14.7700 H   0  0  0  0  0  0  0  0  0  0  0  0
   10.7011   42.5856   14.3663 H   0  0  0  0  0  0  0  0  0  0  0  0
   10.6559   40.7899   14.3663 H   0  0  0  0  0  0  0  0  0  0  0  0
   10.7981   42.7218   16.6862 H   0  0  0  0  0  0  0  0  0  0  0  0
    9.8825   41.1965   16.9231 H   0  0  0  0  0  0  0  0  0  0  0  0
   13.9100   41.3673   15.2441 H   0  0  0  0  0  0  0  0  0  0  0  0
   14.3657   40.4375   13.7763 H   0  0  0  0  0  0  0  0  0  0  0  0
   12.8773   41.4432   13.7763 H   0  0  0  0  0  0  0  0  0  0  0  0
   13.8140   38.2674   13.7053 H   0  0  0  0  0  0  0  0  0  0  0  0
   12.4226   37.5980   14.6637 H   0  0  0  0  0  0  0  0  0  0  0  0
    8.0518   38.2833   11.6808 H   0  0  0  0  0  0  0  0  0  0  0  0
    8.6047   39.3102   10.2612 H   0  0  0  0  0  0  0  0  0  0  0  0
    9.3522   35.7180   11.2471 H   0  0  0  0  0  0  0  0  0  0  0  0
    9.0113   33.8055    9.6775 H   0  0  0  0  0  0  0  0  0  0  0  0
    8.0247   34.2012    7.4109 H   0  0  0  0  0  0  0  0  0  0  0  0
    7.1102   35.6969    5.7492 H   0  0  0  0  0  0  0  0  0  0  0  0
    6.4458   37.9981    5.0156 H   0  0  0  0  0  0  0  0  0  0  0  0
    6.7671   39.9437    6.5616 H   0  0  0  0  0  0  0  0  0  0  0  0
    7.7512   39.5964    8.8343 H   0  0  0  0  0  0  0  0  0  0  0  0
   10.4944   38.9214    8.5831 H   0  0  0  0  0  0  0  0  0  0  0  0
   12.7592   39.4058    7.6233 H   0  0  0  0  0  0  0  0  0  0  0  0
   14.4894   39.1545   11.5921 H   0  0  0  0  0  0  0  0  0  0  0  0
  1  2  1  0
  2  3  1  0
  3  4  1  0
  4  5  2  0
  4  6  1  0
  6  7  1  0
  6  8  1  0
  8  9  1  0
  9 10  2  0
 10 11  1  0
 11 12  2  0
 11 13  1  0
 10 14  1  0
 14 15  1  0
 15 16  1  0
 16 17  2  0
 17 18  1  0
 18 19  2  0
 19 20  1  0
 20 21  2  0
 21 22  1  0
 22 23  2  0
 23 24  1  0
 24 25  2  0
 14 26  1  0
 26 27  2  0
 27 28  1  0
 28 29  2  0
 29 30  1  0
 29 31  1  0
 31 32  2  0
 32  9  1  0
 25 16  1  0
 32 26  1  0
 25 20  1  0
  1 33  1  0
  1 34  1  0
  1 35  1  0
  2 36  1  0
  2 37  1  0
  7 38  1  0
  7 39  1  0
  7 40  1  0
  8 41  1  0
  8 42  1  0
 15 43  1  0
 15 44  1  0
 17 45  1  0
 18 46  1  0
 19 47  1  0
 21 48  1  0
 22 49  1  0
 23 50  1  0
 24 51  1  0
 27 52  1  0
 28 53  1  0
 31 54  1  0
M  CHG  1  13  -1
M  END
>  <meeko>  (293) 
{"free_energy": -6.54, "intermolecular_energy": -8.93, "internal_energy": -2.08, "cluster_size": 283, "cluster_id": 7, "rank_in_cluster": 66}

$$$$

     RDKit          3D

 54 57  0  0  0  0  0  0  0  0999 V2000
    8.4750   34.6560    9.1090 C   0  0  0  0  0  0  0  0  0  0  0  0
    7.5880   35.8660    8.8060 C   0  0  0  0  0  0  0  0  0  0  0  0
    8.2870   36.7550    7.9500 O   0  0  0  0  0  0  0  0  0  0  0  0
    8.0720   38.0850    8.0350 C   0  0  0  0  0  0  0  0  0  0  0  0
    7.2670   38.6890    7.3230 O   0  0  0  0  0  0  0  0  0  0  0  0
    8.8770   38.6510    9.0320 N   0  0  0  0  0  0  0  0  0  0  0  0
   10.3220   38.4070    9.1000 C   0  0  0  0  0  0  0  0  0  0  0  0
    8.3030   39.4990   10.0850 C   0  0  0  0  0  0  0  0  0  0  0  0
    9.1250   39.4740   11.3520 C   0  0  0  0  0  0  0  0  0  0  0  0
    9.5940   38.3820   12.0600 C   0  0  0  0  0  0  0  0  0  0  0  0
    9.4560   36.9220   11.7620 C   0  0  0  0  0  0  0  0  0  0  0  0
    8.3140   36.4130   11.7690 O   0  0  0  0  0  0  0  0  0  0  0  0
   10.4650   36.2210   11.5310 O   0  0  0  0  0  1  0  0  0  0  0  0
   10.2620   38.8410   13.2150 N   0  0  0  0  0  0  0  0  0  0  0  0
   10.9280   38.0530   14.2560 C   0  0  0  0  0  0  0  0  0  0  0  0
   10.0590   37.7380   15.4810 C   0  0  0  0  0  0  0  0  0  0  0  0
    9.8720   38.7000   16.5050 C   0  0  0  0  0  0  0  0  0  0  0  0
    9.0770   38.4160   17.6290 C   0  0  0  0  0  0  0  0  0  0  0  0
    8.4560   37.1620   17.7510 C   0  0  0  0  0  0  0  0  0  0  0  0
    8.6290   36.1890   16.7480 C   0  0  0  0  0  0  0  0  0  0  0  0
    7.9980   34.9350   16.8880 C   0  0  0  0  0  0  0  0  0  0  0  0
    8.1570   33.9480   15.8990 C   0  0  0  0  0  0  0  0  0  0  0  0
    8.9470   34.2140   14.7670 C   0  0  0  0  0  0  0  0  0  0  0  0
    9.5800   35.4630   14.6220 C   0  0  0  0  0  0  0  0  0  0  0  0
    9.4310   36.4690   15.6080 C   0  0  0  0  0  0  0  0  0  0  0  0
   10.2190   40.2290   13.2470 C   0  0  0  0  0  0  0  0  0  0  0  0
   10.7160   41.1640   14.1780 C   0  0  0  0  0  0  0  0  0  0  0  0
   10.5380   42.5390   13.9550 C   0  0  0  0  0  0  0  0  0  0  0  0
    9.8640   42.9750   12.8010 C   0  0  0  0  0  0  0  0  0  0  0  0
    9.6920   44.3000   12.5780 F   0  0  0  0  0  0  0  0  0  0  0  0
    9.3680   42.0360   11.8770 C   0  0  0  0  0  0  0  0  0  0  0  0
    9.5260   40.6440   12.0780 C   0  0  0  0  0  0  0  0  0  0  0  0
    8.5661   34.5317   10.1982 H   0  0  0  0  0  0  0  0  0  0  0  0
    8.0238   33.7523    8.6733 H   0  0  0  0  0  0  0  0  0  0  0  0
    9.4725   34.8143    8.6733 H   0  0  0  0  0  0  0  0  0  0  0  0
    6.6641   35.5303    8.3123 H   0  0  0  0  0  0  0  0  0  0  0  0
    7.3328   36.3808    9.7440 H   0  0  0  0  0  0  0  0  0  0  0  0
   10.6358   38.3540   10.1530 H   0  0  0  0  0  0  0  0  0  0  0  0
   10.5573   37.4564    8.5990 H   0  0  0  0  0  0  0  0  0  0  0  0
   10.8564   39.2276    8.5990 H   0  0  0  0  0  0  0  0  0  0  0  0
    8.2517   40.5343    9.7169 H   0  0  0  0  0  0  0  0  0  0  0  0
    7.3031   39.1081   10.3245 H   0  0  0  0  0  0  0  0  0  0  0  0
   11.2494   37.1000   13.8105 H   0  0  0  0  0  0  0  0  0  0  0  0
   11.7651   38.6666   14.6203 H   0  0  0  0  0  0  0  0  0  0  0  0
   10.3564   39.6838   16.4188 H   0  0  0  0  0  0  0  0  0  0  0  0
    8.9412   39.1757   18.4129 H   0  0  0  0  0  0  0  0  0  0  0  0
    7.8341   36.9399   18.6307 H   0  0  0  0  0  0  0  0  0  0  0  0
    7.3795   34.7286   17.7739 H   0  0  0  0  0  0  0  0  0  0  0  0
    7.6647   32.9707   16.0108 H   0  0  0  0  0  0  0  0  0  0  0  0
    9.0710   33.4435   13.9918 H   0  0  0  0  0  0  0  0  0  0  0  0
   10.1972   35.6599   13.7331 H   0  0  0  0  0  0  0  0  0  0  0  0
   11.2430   40.8165   15.0788 H   0  0  0  0  0  0  0  0  0  0  0  0
   10.9240   43.2711   14.6796 H   0  0  0  0  0  0  0  0  0  0  0  0
    8.8452   42.3926   10.9773 H   0  0  0  0  0  0  0  0  0  0  0  0
  1  2  1  0
  2  3  1  0
  3  4  1  0
  4  5  2  0
  4  6  1  0
  6  7  1  0
  6  8  1  0
  8  9  1  0
  9 10  2  0
 10 11  1  0
 11 12  2  0
 11 13  1  0
 10 14  1  0
 14 15  1  0
 15 16  1  0
 16 17  2  0
 17 18  1  0
 18 19  2  0
 19 20  1  0
 20 21  2  0
 21 22  1  0
 22 23  2  0
 23 24  1  0
 24 25  2  0
 14 26  1  0
 26 27  2  0
 27 28  1  0
 28 29  2  0
 29 30  1  0
 29 31  1  0
 31 32  2  0
 32  9  1  0
 25 16  1  0
 32 26  1  0
 25 20  1  0
  1 33  1  0
  1 34  1  0
  1 35  1  0
  2 36  1  0
  2 37  1  0
  7 38  1  0
  7 39  1  0
  7 40  1  0
  8 41  1  0
  8 42  1  0
 15 43  1  0
 15 44  1  0
 17 45  1  0
 18 46  1  0
 19 47  1  0
 21 48  1  0
 22 49  1  0
 23 50  1  0
 24 51  1  0
 27 52  1  0
 28 53  1  0
 31 54  1  0
M  CHG  1  13  -1
M  END
>  <meeko>  (294) 
{"free_energy": -6.06, "intermolecular_energy": -8.44, "internal_energy": -2.03, "cluster_size": 136, "cluster_id": 23, "rank_in_cluster": 42}

$$$$

     RDKit          3D

 54 57  0  0  0  0  0  0  0  0999 V2000
    7.2650   36.2580   17.3060 C   0  0  0  0  0  0  0  0  0  0  0  0
    7.2250   34.7280   17.3480 C   0  0  0  0  0  0  0  0  0  0  0  0
    7.6950   34.2140   16.1130 O   0  0  0  0  0  0  0  0  0  0  0  0
    9.0220   34.0970   15.8900 C   0  0  0  0  0  0  0  0  0  0  0  0
    9.7310   33.2590   16.4500 O   0  0  0  0  0  0  0  0  0  0  0  0
    9.4470   35.0420   14.9480 N   0  0  0  0  0  0  0  0  0  0  0  0
   10.8680   35.2840   14.6720 C   0  0  0  0  0  0  0  0  0  0  0  0
    8.4830   35.8640   14.2050 C   0  0  0  0  0  0  0  0  0  0  0  0
    9.1610   36.9160   13.3580 C   0  0  0  0  0  0  0  0  0  0  0  0
    9.8520   38.0440   13.7660 C   0  0  0  0  0  0  0  0  0  0  0  0
   10.1560   38.5280   15.1480 C   0  0  0  0  0  0  0  0  0  0  0  0
    9.6720   39.6180   15.5230 O   0  0  0  0  0  0  0  0  0  0  0  0
   10.8950   37.8650   15.9070 O   0  0  0  0  0  1  0  0  0  0  0  0
   10.2560   38.7670   12.6230 N   0  0  0  0  0  0  0  0  0  0  0  0
   11.0190   40.0170   12.5590 C   0  0  0  0  0  0  0  0  0  0  0  0
   11.6830   40.2990   11.2050 C   0  0  0  0  0  0  0  0  0  0  0  0
   11.1920   41.3210   10.3550 C   0  0  0  0  0  0  0  0  0  0  0  0
   11.7970   41.5830    9.1140 C   0  0  0  0  0  0  0  0  0  0  0  0
   12.9040   40.8250    8.6980 C   0  0  0  0  0  0  0  0  0  0  0  0
   13.4080   39.8020    9.5230 C   0  0  0  0  0  0  0  0  0  0  0  0
   14.5190   39.0500    9.0890 C   0  0  0  0  0  0  0  0  0  0  0  0
   15.0400   38.0240    9.8970 C   0  0  0  0  0  0  0  0  0  0  0  0
   14.4490   37.7470   11.1430 C   0  0  0  0  0  0  0  0  0  0  0  0
   13.3390   38.4940   11.5820 C   0  0  0  0  0  0  0  0  0  0  0  0
   12.8020   39.5320   10.7810 C   0  0  0  0  0  0  0  0  0  0  0  0
    9.8230   38.1010   11.4840 C   0  0  0  0  0  0  0  0  0  0  0  0
    9.9520   38.4050   10.1130 C   0  0  0  0  0  0  0  0  0  0  0  0
    9.4160   37.5340    9.1490 C   0  0  0  0  0  0  0  0  0  0  0  0
    8.7550   36.3630    9.5590 C   0  0  0  0  0  0  0  0  0  0  0  0
    8.2390   35.5180    8.6350 F   0  0  0  0  0  0  0  0  0  0  0  0
    8.6270   36.0690   10.9310 C   0  0  0  0  0  0  0  0  0  0  0  0
    9.1510   36.9300   11.9250 C   0  0  0  0  0  0  0  0  0  0  0  0
    7.2753   36.6528   18.3326 H   0  0  0  0  0  0  0  0  0  0  0  0
    8.1720   36.5867   16.7776 H   0  0  0  0  0  0  0  0  0  0  0  0
    6.3764   36.6337   16.7776 H   0  0  0  0  0  0  0  0  0  0  0  0
    7.8664   34.3657   18.1650 H   0  0  0  0  0  0  0  0  0  0  0  0
    6.1921   34.3904   17.5190 H   0  0  0  0  0  0  0  0  0  0  0  0
   11.4153   35.3772   15.6216 H   0  0  0  0  0  0  0  0  0  0  0  0
   11.2777   34.4427   14.0938 H   0  0  0  0  0  0  0  0  0  0  0  0
   10.9761   36.2135   14.0938 H   0  0  0  0  0  0  0  0  0  0  0  0
    7.8908   35.2090   13.5490 H   0  0  0  0  0  0  0  0  0  0  0  0
    7.8453   36.3805   14.9375 H   0  0  0  0  0  0  0  0  0  0  0  0
   10.3337   40.8477   12.7833 H   0  0  0  0  0  0  0  0  0  0  0  0
   11.8359   39.9179   13.2889 H   0  0  0  0  0  0  0  0  0  0  0  0
   10.3242   41.9183   10.6714 H   0  0  0  0  0  0  0  0  0  0  0  0
   11.4036   42.3819    8.4682 H   0  0  0  0  0  0  0  0  0  0  0  0
   13.3774   41.0311    7.7267 H   0  0  0  0  0  0  0  0  0  0  0  0
   14.9801   39.2669    8.1141 H   0  0  0  0  0  0  0  0  0  0  0  0
   15.9072   37.4397    9.5557 H   0  0  0  0  0  0  0  0  0  0  0  0
   14.8551   36.9445   11.7763 H   0  0  0  0  0  0  0  0  0  0  0  0
   12.8837   38.2691   12.5578 H   0  0  0  0  0  0  0  0  0  0  0  0
   10.4713   39.3223    9.7986 H   0  0  0  0  0  0  0  0  0  0  0  0
    9.5133   37.7675    8.0785 H   0  0  0  0  0  0  0  0  0  0  0  0
    8.1077   35.1488   11.2369 H   0  0  0  0  0  0  0  0  0  0  0  0
  1  2  1  0
  2  3  1  0
  3  4  1  0
  4  5  2  0
  4  6  1  0
  6  7  1  0
  6  8  1  0
  8  9  1  0
  9 10  2  0
 10 11  1  0
 11 12  2  0
 11 13  1  0
 10 14  1  0
 14 15  1  0
 15 16  1  0
 16 17  2  0
 17 18  1  0
 18 19  2  0
 19 20  1  0
 20 21  2  0
 21 22  1  0
 22 23  2  0
 23 24  1  0
 24 25  2  0
 14 26  1  0
 26 27  2  0
 27 28  1  0
 28 29  2  0
 29 30  1  0
 29 31  1  0
 31 32  2  0
 32  9  1  0
 25 16  1  0
 32 26  1  0
 25 20  1  0
  1 33  1  0
  1 34  1  0
  1 35  1  0
  2 36  1  0
  2 37  1  0
  7 38  1  0
  7 39  1  0
  7 40  1  0
  8 41  1  0
  8 42  1  0
 15 43  1  0
 15 44  1  0
 17 45  1  0
 18 46  1  0
 19 47  1  0
 21 48  1  0
 22 49  1  0
 23 50  1  0
 24 51  1  0
 27 52  1  0
 28 53  1  0
 31 54  1  0
M  CHG  1  13  -1
M  END
>  <meeko>  (295) 
{"free_energy": -6.39, "intermolecular_energy": -8.77, "internal_energy": -1.55, "cluster_size": 251, "cluster_id": 26, "rank_in_cluster": 22}

$$$$

     RDKit          3D

 54 57  0  0  0  0  0  0  0  0999 V2000
   13.7050   41.3180    6.0770 C   0  0  0  0  0  0  0  0  0  0  0  0
   13.0940   42.3850    6.9890 C   0  0  0  0  0  0  0  0  0  0  0  0
   12.4730   41.7530    8.0960 O   0  0  0  0  0  0  0  0  0  0  0  0
   12.8880   42.0260    9.3510 C   0  0  0  0  0  0  0  0  0  0  0  0
   12.6910   43.1070    9.9100 O   0  0  0  0  0  0  0  0  0  0  0  0
   13.5490   40.9210    9.9020 N   0  0  0  0  0  0  0  0  0  0  0  0
   14.8240   40.4290    9.3690 C   0  0  0  0  0  0  0  0  0  0  0  0
   12.9780   40.1780   11.0340 C   0  0  0  0  0  0  0  0  0  0  0  0
   11.4760   40.3210   11.1130 C   0  0  0  0  0  0  0  0  0  0  0  0
   10.4980   39.4440   10.6770 C   0  0  0  0  0  0  0  0  0  0  0  0
   10.6390   38.0980   10.0390 C   0  0  0  0  0  0  0  0  0  0  0  0
   10.7530   38.0320    8.7960 O   0  0  0  0  0  0  0  0  0  0  0  0
   10.6240   37.0600   10.7340 O   0  0  0  0  0  1  0  0  0  0  0  0
    9.2330   40.0270   10.9020 N   0  0  0  0  0  0  0  0  0  0  0  0
    7.9090   39.4690   10.6120 C   0  0  0  0  0  0  0  0  0  0  0  0
    7.8240   38.6490    9.3180 C   0  0  0  0  0  0  0  0  0  0  0  0
    7.7680   39.2890    8.0550 C   0  0  0  0  0  0  0  0  0  0  0  0
    7.6900   38.5410    6.8670 C   0  0  0  0  0  0  0  0  0  0  0  0
    7.6640   37.1380    6.9210 C   0  0  0  0  0  0  0  0  0  0  0  0
    7.7170   36.4790    8.1640 C   0  0  0  0  0  0  0  0  0  0  0  0
    7.6900   35.0700    8.1990 C   0  0  0  0  0  0  0  0  0  0  0  0
    7.7410   34.3900    9.4290 C   0  0  0  0  0  0  0  0  0  0  0  0
    7.8200   35.1200   10.6280 C   0  0  0  0  0  0  0  0  0  0  0  0
    7.8470   36.5270   10.6000 C   0  0  0  0  0  0  0  0  0  0  0  0
    7.7960   37.2280    9.3700 C   0  0  0  0  0  0  0  0  0  0  0  0
    9.4010   41.2780   11.4820 C   0  0  0  0  0  0  0  0  0  0  0  0
    8.4730   42.2590   11.8870 C   0  0  0  0  0  0  0  0  0  0  0  0
    8.9260   43.4560   12.4660 C   0  0  0  0  0  0  0  0  0  0  0  0
   10.3050   43.6670   12.6400 C   0  0  0  0  0  0  0  0  0  0  0  0
   10.7480   44.8170   13.2020 F   0  0  0  0  0  0  0  0  0  0  0  0
   11.2260   42.6840   12.2310 C   0  0  0  0  0  0  0  0  0  0  0  0
   10.8000   41.4710   11.6380 C   0  0  0  0  0  0  0  0  0  0  0  0
   14.1584   40.5263    6.6915 H   0  0  0  0  0  0  0  0  0  0  0  0
   12.9184   40.8842    5.4421 H   0  0  0  0  0  0  0  0  0  0  0  0
   14.4772   41.7768    5.4421 H   0  0  0  0  0  0  0  0  0  0  0  0
   13.8855   43.0598    7.3471 H   0  0  0  0  0  0  0  0  0  0  0  0
   12.3468   42.9660    6.4285 H   0  0  0  0  0  0  0  0  0  0  0  0
   15.4943   40.1704   10.2020 H   0  0  0  0  0  0  0  0  0  0  0  0
   14.6436   39.5359    8.7527 H   0  0  0  0  0  0  0  0  0  0  0  0
   15.2903   41.2118    8.7527 H   0  0  0  0  0  0  0  0  0  0  0  0
   13.2266   39.1126   10.9196 H   0  0  0  0  0  0  0  0  0  0  0  0
   13.4052   40.5925   11.9591 H   0  0  0  0  0  0  0  0  0  0  0  0
    7.6220   38.8165   11.4498 H   0  0  0  0  0  0  0  0  0  0  0  0
    7.2344   40.3275   10.4786 H   0  0  0  0  0  0  0  0  0  0  0  0
    7.7858   40.3876    8.0032 H   0  0  0  0  0  0  0  0  0  0  0  0
    7.6493   39.0548    5.8952 H   0  0  0  0  0  0  0  0  0  0  0  0
    7.6022   36.5534    5.9913 H   0  0  0  0  0  0  0  0  0  0  0  0
    7.6288   34.5000    7.2602 H   0  0  0  0  0  0  0  0  0  0  0  0
    7.7192   33.2905    9.4529 H   0  0  0  0  0  0  0  0  0  0  0  0
    7.8608   34.5899   11.5910 H   0  0  0  0  0  0  0  0  0  0  0  0
    7.9084   37.0886   11.5438 H   0  0  0  0  0  0  0  0  0  0  0  0
    7.3952   42.0872   11.7497 H   0  0  0  0  0  0  0  0  0  0  0  0
    8.2052   44.2246   12.7817 H   0  0  0  0  0  0  0  0  0  0  0  0
   12.3018   42.8625   12.3755 H   0  0  0  0  0  0  0  0  0  0  0  0
  1  2  1  0
  2  3  1  0
  3  4  1  0
  4  5  2  0
  4  6  1  0
  6  7  1  0
  6  8  1  0
  8  9  1  0
  9 10  2  0
 10 11  1  0
 11 12  2  0
 11 13  1  0
 10 14  1  0
 14 15  1  0
 15 16  1  0
 16 17  2  0
 17 18  1  0
 18 19  2  0
 19 20  1  0
 20 21  2  0
 21 22  1  0
 22 23  2  0
 23 24  1  0
 24 25  2  0
 14 26  1  0
 26 27  2  0
 27 28  1  0
 28 29  2  0
 29 30  1  0
 29 31  1  0
 31 32  2  0
 32  9  1  0
 25 16  1  0
 32 26  1  0
 25 20  1  0
  1 33  1  0
  1 34  1  0
  1 35  1  0
  2 36  1  0
  2 37  1  0
  7 38  1  0
  7 39  1  0
  7 40  1  0
  8 41  1  0
  8 42  1  0
 15 43  1  0
 15 44  1  0
 17 45  1  0
 18 46  1  0
 19 47  1  0
 21 48  1  0
 22 49  1  0
 23 50  1  0
 24 51  1  0
 27 52  1  0
 28 53  1  0
 31 54  1  0
M  CHG  1  13  -1
M  END
>  <meeko>  (296) 
{"free_energy": -6.03, "intermolecular_energy": -8.41, "internal_energy": -1.72, "cluster_size": 417, "cluster_id": 2, "rank_in_cluster": 270}

$$$$

     RDKit          3D

 54 57  0  0  0  0  0  0  0  0999 V2000
   14.9830   37.4760   10.2890 C   0  0  0  0  0  0  0  0  0  0  0  0
   13.6870   38.2580   10.0640 C   0  0  0  0  0  0  0  0  0  0  0  0
   14.0030   39.6030    9.7440 O   0  0  0  0  0  0  0  0  0  0  0  0
   13.1160   40.3640    9.0670 C   0  0  0  0  0  0  0  0  0  0  0  0
   13.0970   40.4510    7.8380 O   0  0  0  0  0  0  0  0  0  0  0  0
   12.2460   41.0110    9.9540 N   0  0  0  0  0  0  0  0  0  0  0  0
   12.6690   42.1610   10.7620 C   0  0  0  0  0  0  0  0  0  0  0  0
   10.8650   40.5480   10.1410 C   0  0  0  0  0  0  0  0  0  0  0  0
   10.7580   39.4840   11.2080 C   0  0  0  0  0  0  0  0  0  0  0  0
   11.4770   39.3610   12.3840 C   0  0  0  0  0  0  0  0  0  0  0  0
   12.5340   40.2530   12.9540 C   0  0  0  0  0  0  0  0  0  0  0  0
   13.7330   39.9410   12.7920 O   0  0  0  0  0  0  0  0  0  0  0  0
   12.2230   41.2800   13.5960 O   0  0  0  0  0  1  0  0  0  0  0  0
   11.0790   38.1750   13.0370 N   0  0  0  0  0  0  0  0  0  0  0  0
   11.5550   37.6340   14.3140 C   0  0  0  0  0  0  0  0  0  0  0  0
   10.4540   37.3350   15.3390 C   0  0  0  0  0  0  0  0  0  0  0  0
    9.8120   38.3860   16.0420 C   0  0  0  0  0  0  0  0  0  0  0  0
    8.8020   38.1160   16.9820 C   0  0  0  0  0  0  0  0  0  0  0  0
    8.4160   36.7910   17.2380 C   0  0  0  0  0  0  0  0  0  0  0  0
    9.0400   35.7300   16.5540 C   0  0  0  0  0  0  0  0  0  0  0  0
    8.6400   34.4050   16.8240 C   0  0  0  0  0  0  0  0  0  0  0  0
    9.2500   33.3300   16.1530 C   0  0  0  0  0  0  0  0  0  0  0  0
   10.2610   33.5790   15.2080 C   0  0  0  0  0  0  0  0  0  0  0  0
   10.6650   34.8990   14.9340 C   0  0  0  0  0  0  0  0  0  0  0  0
   10.0620   35.9940   15.6010 C   0  0  0  0  0  0  0  0  0  0  0  0
   10.1050   37.5380   12.2780 C   0  0  0  0  0  0  0  0  0  0  0  0
    9.4000   36.3330   12.4740 C   0  0  0  0  0  0  0  0  0  0  0  0
    8.4420   35.9210   11.5320 C   0  0  0  0  0  0  0  0  0  0  0  0
    8.1920   36.7150   10.4000 C   0  0  0  0  0  0  0  0  0  0  0  0
    7.2670   36.3250    9.4900 F   0  0  0  0  0  0  0  0  0  0  0  0
    8.9030   37.9160   10.2090 C   0  0  0  0  0  0  0  0  0  0  0  0
    9.8790   38.3540   11.1370 C   0  0  0  0  0  0  0  0  0  0  0  0
   15.1630   37.3674   11.3687 H   0  0  0  0  0  0  0  0  0  0  0  0
   14.8948   36.4802    9.8300 H   0  0  0  0  0  0  0  0  0  0  0  0
   15.8228   38.0182    9.8300 H   0  0  0  0  0  0  0  0  0  0  0  0
   13.1235   37.8053    9.2349 H   0  0  0  0  0  0  0  0  0  0  0  0
   13.0751   38.2297   10.9777 H   0  0  0  0  0  0  0  0  0  0  0  0
   12.5776   41.9125   11.8296 H   0  0  0  0  0  0  0  0  0  0  0  0
   13.7161   42.4061   10.5310 H   0  0  0  0  0  0  0  0  0  0  0  0
   12.0303   43.0263   10.5310 H   0  0  0  0  0  0  0  0  0  0  0  0
   10.2405   41.4055   10.4322 H   0  0  0  0  0  0  0  0  0  0  0  0
   10.5253   40.1086    9.1915 H   0  0  0  0  0  0  0  0  0  0  0  0
   12.0942   36.6975   14.1086 H   0  0  0  0  0  0  0  0  0  0  0  0
   12.1900   38.4128   14.7615 H   0  0  0  0  0  0  0  0  0  0  0  0
   10.1085   39.4276   15.8491 H   0  0  0  0  0  0  0  0  0  0  0  0
    8.3139   38.9438   17.5173 H   0  0  0  0  0  0  0  0  0  0  0  0
    7.6254   36.5813   17.9735 H   0  0  0  0  0  0  0  0  0  0  0  0
    7.8478   34.2115   17.5623 H   0  0  0  0  0  0  0  0  0  0  0  0
    8.9371   32.2974   16.3668 H   0  0  0  0  0  0  0  0  0  0  0  0
   10.7377   32.7393   14.6811 H   0  0  0  0  0  0  0  0  0  0  0  0
   11.4577   35.0826   14.1938 H   0  0  0  0  0  0  0  0  0  0  0  0
    9.5994   35.7163   13.3628 H   0  0  0  0  0  0  0  0  0  0  0  0
    7.8902   34.9810   11.6802 H   0  0  0  0  0  0  0  0  0  0  0  0
    8.6953   38.5276    9.3186 H   0  0  0  0  0  0  0  0  0  0  0  0
  1  2  1  0
  2  3  1  0
  3  4  1  0
  4  5  2  0
  4  6  1  0
  6  7  1  0
  6  8  1  0
  8  9  1  0
  9 10  2  0
 10 11  1  0
 11 12  2  0
 11 13  1  0
 10 14  1  0
 14 15  1  0
 15 16  1  0
 16 17  2  0
 17 18  1  0
 18 19  2  0
 19 20  1  0
 20 21  2  0
 21 22  1  0
 22 23  2  0
 23 24  1  0
 24 25  2  0
 14 26  1  0
 26 27  2  0
 27 28  1  0
 28 29  2  0
 29 30  1  0
 29 31  1  0
 31 32  2  0
 32  9  1  0
 25 16  1  0
 32 26  1  0
 25 20  1  0
  1 33  1  0
  1 34  1  0
  1 35  1  0
  2 36  1  0
  2 37  1  0
  7 38  1  0
  7 39  1  0
  7 40  1  0
  8 41  1  0
  8 42  1  0
 15 43  1  0
 15 44  1  0
 17 45  1  0
 18 46  1  0
 19 47  1  0
 21 48  1  0
 22 49  1  0
 23 50  1  0
 24 51  1  0
 27 52  1  0
 28 53  1  0
 31 54  1  0
M  CHG  1  13  -1
M  END
>  <meeko>  (297) 
{"free_energy": -4.92, "intermolecular_energy": -7.3, "internal_energy": -1.84, "cluster_size": 191, "cluster_id": 13, "rank_in_cluster": 162}

$$$$

     RDKit          3D

 54 57  0  0  0  0  0  0  0  0999 V2000
    9.9360   39.1840   11.9430 C   0  0  0  0  0  0  0  0  0  0  0  0
   10.0200   40.2950   12.9920 C   0  0  0  0  0  0  0  0  0  0  0  0
    9.4110   39.8510   14.1930 O   0  0  0  0  0  0  0  0  0  0  0  0
    9.9450   38.8200   14.8820 C   0  0  0  0  0  0  0  0  0  0  0  0
    9.8550   37.6450   14.5210 O   0  0  0  0  0  0  0  0  0  0  0  0
   10.6020   39.2820   16.0290 N   0  0  0  0  0  0  0  0  0  0  0  0
   10.8290   40.7110   16.2760 C   0  0  0  0  0  0  0  0  0  0  0  0
   11.1270   38.3490   17.0350 C   0  0  0  0  0  0  0  0  0  0  0  0
   10.1820   37.2000   17.2970 C   0  0  0  0  0  0  0  0  0  0  0  0
    9.1110   37.1410   18.1720 C   0  0  0  0  0  0  0  0  0  0  0  0
    8.5590   38.1960   19.0780 C   0  0  0  0  0  0  0  0  0  0  0  0
    9.0350   38.3090   20.2280 O   0  0  0  0  0  0  0  0  0  0  0  0
    7.6270   38.9380   18.6970 O   0  0  0  0  0  1  0  0  0  0  0  0
    8.5580   35.8430   18.1260 N   0  0  0  0  0  0  0  0  0  0  0  0
    7.4100   35.3160   18.8680 C   0  0  0  0  0  0  0  0  0  0  0  0
    6.5100   36.3820   19.5070 C   0  0  0  0  0  0  0  0  0  0  0  0
    6.7580   36.8480   20.8220 C   0  0  0  0  0  0  0  0  0  0  0  0
    5.9370   37.8240   21.4110 C   0  0  0  0  0  0  0  0  0  0  0  0
    4.8500   38.3520   20.6960 C   0  0  0  0  0  0  0  0  0  0  0  0
    4.5820   37.9040   19.3890 C   0  0  0  0  0  0  0  0  0  0  0  0
    3.4850   38.4450   18.6860 C   0  0  0  0  0  0  0  0  0  0  0  0
    3.1980   38.0130   17.3790 C   0  0  0  0  0  0  0  0  0  0  0  0
    4.0090   37.0370   16.7720 C   0  0  0  0  0  0  0  0  0  0  0  0
    5.1040   36.4930   17.4690 C   0  0  0  0  0  0  0  0  0  0  0  0
    5.4080   36.9170   18.7860 C   0  0  0  0  0  0  0  0  0  0  0  0
    9.2770   35.0710   17.2220 C   0  0  0  0  0  0  0  0  0  0  0  0
    9.1460   33.7250   16.8230 C   0  0  0  0  0  0  0  0  0  0  0  0
   10.0210   33.1900   15.8630 C   0  0  0  0  0  0  0  0  0  0  0  0
   11.0220   34.0030   15.3040 C   0  0  0  0  0  0  0  0  0  0  0  0
   11.8670   33.4940   14.3750 F   0  0  0  0  0  0  0  0  0  0  0  0
   11.1490   35.3450   15.7100 C   0  0  0  0  0  0  0  0  0  0  0  0
   10.2870   35.9110   16.6800 C   0  0  0  0  0  0  0  0  0  0  0  0
    9.8623   38.2089   12.4467 H   0  0  0  0  0  0  0  0  0  0  0  0
    9.0471   39.3400   11.3141 H   0  0  0  0  0  0  0  0  0  0  0  0
   10.8383   39.2045   11.3141 H   0  0  0  0  0  0  0  0  0  0  0  0
   11.0749   40.5407   13.1837 H   0  0  0  0  0  0  0  0  0  0  0  0
    9.4988   41.1908   12.6233 H   0  0  0  0  0  0  0  0  0  0  0  0
   10.8583   40.8956   17.3600 H   0  0  0  0  0  0  0  0  0  0  0  0
   11.7864   41.0132   15.8265 H   0  0  0  0  0  0  0  0  0  0  0  0
   10.0124   41.2950   15.8265 H   0  0  0  0  0  0  0  0  0  0  0  0
   12.0853   37.9447   16.6770 H   0  0  0  0  0  0  0  0  0  0  0  0
   11.2527   38.9038   17.9765 H   0  0  0  0  0  0  0  0  0  0  0  0
    6.7971   34.7229   18.1733 H   0  0  0  0  0  0  0  0  0  0  0  0
    7.8239   34.7238   19.6974 H   0  0  0  0  0  0  0  0  0  0  0  0
    7.6064   36.4392   21.3904 H   0  0  0  0  0  0  0  0  0  0  0  0
    6.1457   38.1746   22.4325 H   0  0  0  0  0  0  0  0  0  0  0  0
    4.2075   39.1162   21.1577 H   0  0  0  0  0  0  0  0  0  0  0  0
    2.8516   39.2079   19.1622 H   0  0  0  0  0  0  0  0  0  0  0  0
    2.3422   38.4368   16.8331 H   0  0  0  0  0  0  0  0  0  0  0  0
    3.7867   36.6979   15.7495 H   0  0  0  0  0  0  0  0  0  0  0  0
    5.7312   35.7296   16.9854 H   0  0  0  0  0  0  0  0  0  0  0  0
    8.3594   33.0944   17.2630 H   0  0  0  0  0  0  0  0  0  0  0  0
    9.9232   32.1399   15.5503 H   0  0  0  0  0  0  0  0  0  0  0  0
   11.9369   35.9688   15.2628 H   0  0  0  0  0  0  0  0  0  0  0  0
  1  2  1  0
  2  3  1  0
  3  4  1  0
  4  5  2  0
  4  6  1  0
  6  7  1  0
  6  8  1  0
  8  9  1  0
  9 10  2  0
 10 11  1  0
 11 12  2  0
 11 13  1  0
 10 14  1  0
 14 15  1  0
 15 16  1  0
 16 17  2  0
 17 18  1  0
 18 19  2  0
 19 20  1  0
 20 21  2  0
 21 22  1  0
 22 23  2  0
 23 24  1  0
 24 25  2  0
 14 26  1  0
 26 27  2  0
 27 28  1  0
 28 29  2  0
 29 30  1  0
 29 31  1  0
 31 32  2  0
 32  9  1  0
 25 16  1  0
 32 26  1  0
 25 20  1  0
  1 33  1  0
  1 34  1  0
  1 35  1  0
  2 36  1  0
  2 37  1  0
  7 38  1  0
  7 39  1  0
  7 40  1  0
  8 41  1  0
  8 42  1  0
 15 43  1  0
 15 44  1  0
 17 45  1  0
 18 46  1  0
 19 47  1  0
 21 48  1  0
 22 49  1  0
 23 50  1  0
 24 51  1  0
 27 52  1  0
 28 53  1  0
 31 54  1  0
M  CHG  1  13  -1
M  END
>  <meeko>  (298) 
{"free_energy": -5.75, "intermolecular_energy": -8.14, "internal_energy": -1.03, "cluster_size": 136, "cluster_id": 17, "rank_in_cluster": 64}

$$$$

     RDKit          3D

 54 57  0  0  0  0  0  0  0  0999 V2000
   16.9430   40.2070   14.6810 C   0  0  0  0  0  0  0  0  0  0  0  0
   16.5830   41.5690   14.0820 C   0  0  0  0  0  0  0  0  0  0  0  0
   15.9170   41.3740   12.8450 O   0  0  0  0  0  0  0  0  0  0  0  0
   14.5700   41.3040   12.8060 C   0  0  0  0  0  0  0  0  0  0  0  0
   13.8320   42.1580   13.3020 O   0  0  0  0  0  0  0  0  0  0  0  0
   14.1560   40.1500   12.1280 N   0  0  0  0  0  0  0  0  0  0  0  0
   15.0990   39.0980   11.7320 C   0  0  0  0  0  0  0  0  0  0  0  0
   12.7500   39.9490   11.7540 C   0  0  0  0  0  0  0  0  0  0  0  0
   12.0560   38.9500   12.6490 C   0  0  0  0  0  0  0  0  0  0  0  0
   12.3710   38.5840   13.9460 C   0  0  0  0  0  0  0  0  0  0  0  0
   13.4550   39.0900   14.8440 C   0  0  0  0  0  0  0  0  0  0  0  0
   13.3030   40.1960   15.4050 O   0  0  0  0  0  0  0  0  0  0  0  0
   14.5020   38.4270   15.0140 O   0  0  0  0  0  1  0  0  0  0  0  0
   11.4830   37.5670   14.3590 N   0  0  0  0  0  0  0  0  0  0  0  0
   11.4250   36.8780   15.6510 C   0  0  0  0  0  0  0  0  0  0  0  0
   10.5380   35.6270   15.6760 C   0  0  0  0  0  0  0  0  0  0  0  0
   10.9970   34.4000   15.1350 C   0  0  0  0  0  0  0  0  0  0  0  0
   10.1870   33.2510   15.1560 C   0  0  0  0  0  0  0  0  0  0  0  0
    8.9010   33.3090   15.7170 C   0  0  0  0  0  0  0  0  0  0  0  0
    8.4220   34.5160   16.2600 C   0  0  0  0  0  0  0  0  0  0  0  0
    7.1280   34.5550   16.8190 C   0  0  0  0  0  0  0  0  0  0  0  0
    6.6280   35.7510   17.3660 C   0  0  0  0  0  0  0  0  0  0  0  0
    7.4230   36.9100   17.3560 C   0  0  0  0  0  0  0  0  0  0  0  0
    8.7160   36.8780   16.7980 C   0  0  0  0  0  0  0  0  0  0  0  0
    9.2350   35.6820   16.2430 C   0  0  0  0  0  0  0  0  0  0  0  0
   10.6010   37.2820   13.3250 C   0  0  0  0  0  0  0  0  0  0  0  0
    9.5460   36.3520   13.2190 C   0  0  0  0  0  0  0  0  0  0  0  0
    8.7930   36.2780   12.0350 C   0  0  0  0  0  0  0  0  0  0  0  0
    9.0960   37.1350   10.9630 C   0  0  0  0  0  0  0  0  0  0  0  0
    8.3710   37.0720    9.8210 F   0  0  0  0  0  0  0  0  0  0  0  0
   10.1530   38.0580   11.0740 C   0  0  0  0  0  0  0  0  0  0  0  0
   10.9340   38.1510   12.2520 C   0  0  0  0  0  0  0  0  0  0  0  0
   16.9255   40.2731   15.7789 H   0  0  0  0  0  0  0  0  0  0  0  0
   16.2128   39.4551   14.3473 H   0  0  0  0  0  0  0  0  0  0  0  0
   17.9494   39.9141   14.3473 H   0  0  0  0  0  0  0  0  0  0  0  0
   15.9223   42.1120   14.7738 H   0  0  0  0  0  0  0  0  0  0  0  0
   17.4997   42.1548   13.9194 H   0  0  0  0  0  0  0  0  0  0  0  0
   15.5215   38.6267   12.6316 H   0  0  0  0  0  0  0  0  0  0  0  0
   14.5725   38.3398   11.1337 H   0  0  0  0  0  0  0  0  0  0  0  0
   15.9100   39.5388   11.1337 H   0  0  0  0  0  0  0  0  0  0  0  0
   12.2240   40.9125   11.8247 H   0  0  0  0  0  0  0  0  0  0  0  0
   12.7280   39.5536   10.7278 H   0  0  0  0  0  0  0  0  0  0  0  0
   12.4473   36.5777   15.9244 H   0  0  0  0  0  0  0  0  0  0  0  0
   10.9760   37.5890   16.3601 H   0  0  0  0  0  0  0  0  0  0  0  0
   12.0024   34.3459   14.6919 H   0  0  0  0  0  0  0  0  0  0  0  0
   10.5606   32.3068   14.7331 H   0  0  0  0  0  0  0  0  0  0  0  0
    8.2672   32.4101   15.7321 H   0  0  0  0  0  0  0  0  0  0  0  0
    6.5072   33.6470   16.8274 H   0  0  0  0  0  0  0  0  0  0  0  0
    5.6177   35.7789   17.8003 H   0  0  0  0  0  0  0  0  0  0  0  0
    7.0342   37.8452   17.7853 H   0  0  0  0  0  0  0  0  0  0  0  0
    9.3293   37.7911   16.7931 H   0  0  0  0  0  0  0  0  0  0  0  0
    9.3129   35.6853   14.0623 H   0  0  0  0  0  0  0  0  0  0  0  0
    7.9704   35.5529   11.9475 H   0  0  0  0  0  0  0  0  0  0  0  0
   10.3776   38.7223   10.2265 H   0  0  0  0  0  0  0  0  0  0  0  0
  1  2  1  0
  2  3  1  0
  3  4  1  0
  4  5  2  0
  4  6  1  0
  6  7  1  0
  6  8  1  0
  8  9  1  0
  9 10  2  0
 10 11  1  0
 11 12  2  0
 11 13  1  0
 10 14  1  0
 14 15  1  0
 15 16  1  0
 16 17  2  0
 17 18  1  0
 18 19  2  0
 19 20  1  0
 20 21  2  0
 21 22  1  0
 22 23  2  0
 23 24  1  0
 24 25  2  0
 14 26  1  0
 26 27  2  0
 27 28  1  0
 28 29  2  0
 29 30  1  0
 29 31  1  0
 31 32  2  0
 32  9  1  0
 25 16  1  0
 32 26  1  0
 25 20  1  0
  1 33  1  0
  1 34  1  0
  1 35  1  0
  2 36  1  0
  2 37  1  0
  7 38  1  0
  7 39  1  0
  7 40  1  0
  8 41  1  0
  8 42  1  0
 15 43  1  0
 15 44  1  0
 17 45  1  0
 18 46  1  0
 19 47  1  0
 21 48  1  0
 22 49  1  0
 23 50  1  0
 24 51  1  0
 27 52  1  0
 28 53  1  0
 31 54  1  0
M  CHG  1  13  -1
M  END
>  <meeko>  (299) 
{"free_energy": -5.02, "intermolecular_energy": -7.41, "internal_energy": -1.44, "cluster_size": 191, "cluster_id": 13, "rank_in_cluster": 157}

$$$$

     RDKit          3D

 54 57  0  0  0  0  0  0  0  0999 V2000
   12.2500   42.8680    8.4100 C   0  0  0  0  0  0  0  0  0  0  0  0
   13.6290   43.4560    8.7190 C   0  0  0  0  0  0  0  0  0  0  0  0
   14.1220   42.8830    9.9200 O   0  0  0  0  0  0  0  0  0  0  0  0
   14.6870   41.6570    9.9020 C   0  0  0  0  0  0  0  0  0  0  0  0
   15.8930   41.4700    9.7300 O   0  0  0  0  0  0  0  0  0  0  0  0
   13.7190   40.6660   10.1100 N   0  0  0  0  0  0  0  0  0  0  0  0
   13.2990   39.7500    9.0440 C   0  0  0  0  0  0  0  0  0  0  0  0
   13.0510   40.5150   11.4090 C   0  0  0  0  0  0  0  0  0  0  0  0
   11.5470   40.5870   11.2900 C   0  0  0  0  0  0  0  0  0  0  0  0
   10.6820   39.7030   10.6680 C   0  0  0  0  0  0  0  0  0  0  0  0
   10.9770   38.4140    9.9700 C   0  0  0  0  0  0  0  0  0  0  0  0
   11.4510   37.4660   10.6330 O   0  0  0  0  0  0  0  0  0  0  0  0
   10.7720   38.2930    8.7420 O   0  0  0  0  0  1  0  0  0  0  0  0
    9.3700   40.2140   10.7560 N   0  0  0  0  0  0  0  0  0  0  0  0
    8.1270   39.6220   10.2520 C   0  0  0  0  0  0  0  0  0  0  0  0
    8.1360   38.0910   10.1540 C   0  0  0  0  0  0  0  0  0  0  0  0
    8.5050   37.2940   11.2660 C   0  0  0  0  0  0  0  0  0  0  0  0
    8.5140   35.8910   11.1810 C   0  0  0  0  0  0  0  0  0  0  0  0
    8.1560   35.2580    9.9800 C   0  0  0  0  0  0  0  0  0  0  0  0
    7.7860   36.0270    8.8610 C   0  0  0  0  0  0  0  0  0  0  0  0
    7.4290   35.3750    7.6620 C   0  0  0  0  0  0  0  0  0  0  0  0
    7.0570   36.1230    6.5310 C   0  0  0  0  0  0  0  0  0  0  0  0
    7.0410   37.5280    6.5970 C   0  0  0  0  0  0  0  0  0  0  0  0
    7.3970   38.1850    7.7900 C   0  0  0  0  0  0  0  0  0  0  0  0
    7.7740   37.4470    8.9390 C   0  0  0  0  0  0  0  0  0  0  0  0
    9.3940   41.4260   11.4340 C   0  0  0  0  0  0  0  0  0  0  0  0
    8.3700   42.3350   11.7700 C   0  0  0  0  0  0  0  0  0  0  0  0
    8.6790   43.5060   12.4820 C   0  0  0  0  0  0  0  0  0  0  0  0
   10.0090   43.7630   12.8570 C   0  0  0  0  0  0  0  0  0  0  0  0
   10.3120   44.8880   13.5480 F   0  0  0  0  0  0  0  0  0  0  0  0
   11.0270   42.8520   12.5150 C   0  0  0  0  0  0  0  0  0  0  0  0
   10.7470   41.6670   11.7920 C   0  0  0  0  0  0  0  0  0  0  0  0
   11.7271   42.6450    9.3517 H   0  0  0  0  0  0  0  0  0  0  0  0
   11.6637   43.5944    7.8281 H   0  0  0  0  0  0  0  0  0  0  0  0
   12.3682   41.9420    7.8281 H   0  0  0  0  0  0  0  0  0  0  0  0
   14.3191   43.2295    7.8929 H   0  0  0  0  0  0  0  0  0  0  0  0
   13.5480   44.5468    8.8359 H   0  0  0  0  0  0  0  0  0  0  0  0
   12.8799   38.8360    9.4900 H   0  0  0  0  0  0  0  0  0  0  0  0
   12.5347   40.2379    8.4213 H   0  0  0  0  0  0  0  0  0  0  0  0
   14.1675   39.4892    8.4213 H   0  0  0  0  0  0  0  0  0  0  0  0
   13.3260   39.5399   11.8373 H   0  0  0  0  0  0  0  0  0  0  0  0
   13.3783   41.3431   12.0548 H   0  0  0  0  0  0  0  0  0  0  0  0
    7.3097   39.9167   10.9266 H   0  0  0  0  0  0  0  0  0  0  0  0
    7.9999   39.9968    9.2257 H   0  0  0  0  0  0  0  0  0  0  0  0
    8.7889   37.7809   12.2106 H   0  0  0  0  0  0  0  0  0  0  0  0
    8.8016   35.2889   12.0555 H   0  0  0  0  0  0  0  0  0  0  0  0
    8.1647   34.1600    9.9137 H   0  0  0  0  0  0  0  0  0  0  0  0
    7.4417   34.2762    7.6117 H   0  0  0  0  0  0  0  0  0  0  0  0
    6.7794   35.6112    5.5977 H   0  0  0  0  0  0  0  0  0  0  0  0
    6.7494   38.1151    5.7137 H   0  0  0  0  0  0  0  0  0  0  0  0
    7.3823   39.2842    7.8305 H   0  0  0  0  0  0  0  0  0  0  0  0
    7.3307   42.1277   11.4751 H   0  0  0  0  0  0  0  0  0  0  0  0
    7.8834   44.2187   12.7449 H   0  0  0  0  0  0  0  0  0  0  0  0
   12.0631   43.0657   12.8163 H   0  0  0  0  0  0  0  0  0  0  0  0
  1  2  1  0
  2  3  1  0
  3  4  1  0
  4  5  2  0
  4  6  1  0
  6  7  1  0
  6  8  1  0
  8  9  1  0
  9 10  2  0
 10 11  1  0
 11 12  2  0
 11 13  1  0
 10 14  1  0
 14 15  1  0
 15 16  1  0
 16 17  2  0
 17 18  1  0
 18 19  2  0
 19 20  1  0
 20 21  2  0
 21 22  1  0
 22 23  2  0
 23 24  1  0
 24 25  2  0
 14 26  1  0
 26 27  2  0
 27 28  1  0
 28 29  2  0
 29 30  1  0
 29 31  1  0
 31 32  2  0
 32  9  1  0
 25 16  1  0
 32 26  1  0
 25 20  1  0
  1 33  1  0
  1 34  1  0
  1 35  1  0
  2 36  1  0
  2 37  1  0
  7 38  1  0
  7 39  1  0
  7 40  1  0
  8 41  1  0
  8 42  1  0
 15 43  1  0
 15 44  1  0
 17 45  1  0
 18 46  1  0
 19 47  1  0
 21 48  1  0
 22 49  1  0
 23 50  1  0
 24 51  1  0
 27 52  1  0
 28 53  1  0
 31 54  1  0
M  CHG  1  13  -1
M  END
>  <meeko>  (300) 
{"free_energy": -7.21, "intermolecular_energy": -9.6, "internal_energy": -1.36, "cluster_size": 417, "cluster_id": 2, "rank_in_cluster": 100}

$$$$

     RDKit          3D

 54 57  0  0  0  0  0  0  0  0999 V2000
   13.1720   37.5170   10.5900 C   0  0  0  0  0  0  0  0  0  0  0  0
   13.8590   38.8830   10.5090 C   0  0  0  0  0  0  0  0  0  0  0  0
   13.1570   39.7040    9.5890 O   0  0  0  0  0  0  0  0  0  0  0  0
   12.5920   40.8570   10.0070 C   0  0  0  0  0  0  0  0  0  0  0  0
   13.2410   41.8190   10.4210 O   0  0  0  0  0  0  0  0  0  0  0  0
   11.1980   40.7900    9.8930 N   0  0  0  0  0  0  0  0  0  0  0  0
   10.3280   41.9030   10.2890 C   0  0  0  0  0  0  0  0  0  0  0  0
   10.5310   39.5800    9.3930 C   0  0  0  0  0  0  0  0  0  0  0  0
    9.9280   38.7580   10.5070 C   0  0  0  0  0  0  0  0  0  0  0  0
   10.0000   38.9640   11.8730 C   0  0  0  0  0  0  0  0  0  0  0  0
   10.6590   40.0680   12.6380 C   0  0  0  0  0  0  0  0  0  0  0  0
   11.8960   40.0210   12.8140 O   0  0  0  0  0  0  0  0  0  0  0  0
    9.9830   41.0090   13.1080 O   0  0  0  0  0  1  0  0  0  0  0  0
    9.3380   37.9030   12.5280 N   0  0  0  0  0  0  0  0  0  0  0  0
    9.1490   37.6980   13.9670 C   0  0  0  0  0  0  0  0  0  0  0  0
    9.4820   36.2860   14.4670 C   0  0  0  0  0  0  0  0  0  0  0  0
   10.3680   35.4500   13.7430 C   0  0  0  0  0  0  0  0  0  0  0  0
   10.6760   34.1560   14.1970 C   0  0  0  0  0  0  0  0  0  0  0  0
   10.1010   33.6720   15.3830 C   0  0  0  0  0  0  0  0  0  0  0  0
    9.2160   34.4830   16.1190 C   0  0  0  0  0  0  0  0  0  0  0  0
    8.6460   33.9810   17.3070 C   0  0  0  0  0  0  0  0  0  0  0  0
    7.7590   34.7720   18.0580 C   0  0  0  0  0  0  0  0  0  0  0  0
    7.4400   36.0700   17.6210 C   0  0  0  0  0  0  0  0  0  0  0  0
    8.0040   36.5770   16.4350 C   0  0  0  0  0  0  0  0  0  0  0  0
    8.9000   35.7930   15.6670 C   0  0  0  0  0  0  0  0  0  0  0  0
    8.8430   37.0180   11.5800 C   0  0  0  0  0  0  0  0  0  0  0  0
    8.1280   35.8080   11.7060 C   0  0  0  0  0  0  0  0  0  0  0  0
    7.7340   35.1040   10.5560 C   0  0  0  0  0  0  0  0  0  0  0  0
    8.0540   35.6110    9.2850 C   0  0  0  0  0  0  0  0  0  0  0  0
    7.6740   34.9390    8.1730 F   0  0  0  0  0  0  0  0  0  0  0  0
    8.7710   36.8180    9.1670 C   0  0  0  0  0  0  0  0  0  0  0  0
    9.1870   37.5460   10.3070 C   0  0  0  0  0  0  0  0  0  0  0  0
   13.0321   37.2389   11.6450 H   0  0  0  0  0  0  0  0  0  0  0  0
   12.1928   37.5689   10.0916 H   0  0  0  0  0  0  0  0  0  0  0  0
   13.7975   36.7618   10.0916 H   0  0  0  0  0  0  0  0  0  0  0  0
   13.8551   39.3563   11.5019 H   0  0  0  0  0  0  0  0  0  0  0  0
   14.8982   38.7548   10.1719 H   0  0  0  0  0  0  0  0  0  0  0  0
   10.2830   41.9606   11.3866 H   0  0  0  0  0  0  0  0  0  0  0  0
   10.7320   42.8446    9.8887 H   0  0  0  0  0  0  0  0  0  0  0  0
    9.3168   41.7383    9.8887 H   0  0  0  0  0  0  0  0  0  0  0  0
    9.7307   39.8778    8.6996 H   0  0  0  0  0  0  0  0  0  0  0  0
   11.2882   38.9613    8.8893 H   0  0  0  0  0  0  0  0  0  0  0  0
    9.7941   38.4109   14.5015 H   0  0  0  0  0  0  0  0  0  0  0  0
    8.0772   37.8500   14.1624 H   0  0  0  0  0  0  0  0  0  0  0  0
   10.8216   35.8194   12.8115 H   0  0  0  0  0  0  0  0  0  0  0  0
   11.3678   33.5221   13.6229 H   0  0  0  0  0  0  0  0  0  0  0  0
   10.3420   32.6589   15.7373 H   0  0  0  0  0  0  0  0  0  0  0  0
    8.8966   32.9656   17.6478 H   0  0  0  0  0  0  0  0  0  0  0  0
    7.3161   34.3770   18.9842 H   0  0  0  0  0  0  0  0  0  0  0  0
    6.7474   36.6912   18.2079 H   0  0  0  0  0  0  0  0  0  0  0  0
    7.7463   37.5929   16.1009 H   0  0  0  0  0  0  0  0  0  0  0  0
    7.8795   35.4165   12.7035 H   0  0  0  0  0  0  0  0  0  0  0  0
    7.1774   34.1599   10.6500 H   0  0  0  0  0  0  0  0  0  0  0  0
    9.0131   37.2034    8.1656 H   0  0  0  0  0  0  0  0  0  0  0  0
  1  2  1  0
  2  3  1  0
  3  4  1  0
  4  5  2  0
  4  6  1  0
  6  7  1  0
  6  8  1  0
  8  9  1  0
  9 10  2  0
 10 11  1  0
 11 12  2  0
 11 13  1  0
 10 14  1  0
 14 15  1  0
 15 16  1  0
 16 17  2  0
 17 18  1  0
 18 19  2  0
 19 20  1  0
 20 21  2  0
 21 22  1  0
 22 23  2  0
 23 24  1  0
 24 25  2  0
 14 26  1  0
 26 27  2  0
 27 28  1  0
 28 29  2  0
 29 30  1  0
 29 31  1  0
 31 32  2  0
 32  9  1  0
 25 16  1  0
 32 26  1  0
 25 20  1  0
  1 33  1  0
  1 34  1  0
  1 35  1  0
  2 36  1  0
  2 37  1  0
  7 38  1  0
  7 39  1  0
  7 40  1  0
  8 41  1  0
  8 42  1  0
 15 43  1  0
 15 44  1  0
 17 45  1  0
 18 46  1  0
 19 47  1  0
 21 48  1  0
 22 49  1  0
 23 50  1  0
 24 51  1  0
 27 52  1  0
 28 53  1  0
 31 54  1  0
M  CHG  1  13  -1
M  END
>  <meeko>  (301) 
{"free_energy": -6.11, "intermolecular_energy": -8.49, "internal_energy": -1.68, "cluster_size": 253, "cluster_id": 8, "rank_in_cluster": 121}

$$$$

     RDKit          3D

 54 57  0  0  0  0  0  0  0  0999 V2000
    5.8950   38.1350    6.7720 C   0  0  0  0  0  0  0  0  0  0  0  0
    7.1670   37.3920    6.3570 C   0  0  0  0  0  0  0  0  0  0  0  0
    8.1090   37.4510    7.4160 O   0  0  0  0  0  0  0  0  0  0  0  0
    8.0920   38.4890    8.2790 C   0  0  0  0  0  0  0  0  0  0  0  0
    7.5770   39.5780    8.0200 O   0  0  0  0  0  0  0  0  0  0  0  0
    8.7250   38.1400    9.4790 N   0  0  0  0  0  0  0  0  0  0  0  0
    7.9990   37.5210   10.5940 C   0  0  0  0  0  0  0  0  0  0  0  0
   10.1540   38.4070    9.6920 C   0  0  0  0  0  0  0  0  0  0  0  0
   10.5110   38.4770   11.1580 C   0  0  0  0  0  0  0  0  0  0  0  0
   10.7000   37.4400   12.0550 C   0  0  0  0  0  0  0  0  0  0  0  0
   10.6410   35.9620   11.8300 C   0  0  0  0  0  0  0  0  0  0  0  0
   10.7080   35.5300   10.6590 O   0  0  0  0  0  0  0  0  0  0  0  0
   10.5090   35.1760   12.7930 O   0  0  0  0  0  1  0  0  0  0  0  0
   10.9560   37.9850   13.3320 N   0  0  0  0  0  0  0  0  0  0  0  0
   11.2260   37.2760   14.5860 C   0  0  0  0  0  0  0  0  0  0  0  0
   10.1650   37.4700   15.6780 C   0  0  0  0  0  0  0  0  0  0  0  0
   10.0860   38.6840   16.4050 C   0  0  0  0  0  0  0  0  0  0  0  0
    9.1160   38.8660   17.4060 C   0  0  0  0  0  0  0  0  0  0  0  0
    8.2070   37.8360   17.6990 C   0  0  0  0  0  0  0  0  0  0  0  0
    8.2670   36.6210   16.9920 C   0  0  0  0  0  0  0  0  0  0  0  0
    7.3470   35.5970   17.3000 C   0  0  0  0  0  0  0  0  0  0  0  0
    7.3880   34.3740   16.6060 C   0  0  0  0  0  0  0  0  0  0  0  0
    8.3500   34.1730   15.6010 C   0  0  0  0  0  0  0  0  0  0  0  0
    9.2720   35.1910   15.2890 C   0  0  0  0  0  0  0  0  0  0  0  0
    9.2450   36.4290   15.9780 C   0  0  0  0  0  0  0  0  0  0  0  0
   10.9300   39.3710   13.2520 C   0  0  0  0  0  0  0  0  0  0  0  0
   11.1080   40.3720   14.2290 C   0  0  0  0  0  0  0  0  0  0  0  0
   11.0380   41.7270   13.8650 C   0  0  0  0  0  0  0  0  0  0  0  0
   10.7920   42.0760   12.5260 C   0  0  0  0  0  0  0  0  0  0  0  0
   10.7280   43.3810   12.1680 F   0  0  0  0  0  0  0  0  0  0  0  0
   10.6120   41.0710   11.5560 C   0  0  0  0  0  0  0  0  0  0  0  0
   10.6700   39.6970   11.8940 C   0  0  0  0  0  0  0  0  0  0  0  0
    5.8331   38.1712    7.8697 H   0  0  0  0  0  0  0  0  0  0  0  0
    5.9218   39.1595    6.3723 H   0  0  0  0  0  0  0  0  0  0  0  0
    5.0158   37.6084    6.3723 H   0  0  0  0  0  0  0  0  0  0  0  0
    6.9246   36.3415    6.1385 H   0  0  0  0  0  0  0  0  0  0  0  0
    7.5923   37.8617    5.4579 H   0  0  0  0  0  0  0  0  0  0  0  0
    8.4172   37.8776   11.5469 H   0  0  0  0  0  0  0  0  0  0  0  0
    6.9351   37.7942   10.5355 H   0  0  0  0  0  0  0  0  0  0  0  0
    8.1005   36.4273   10.5355 H   0  0  0  0  0  0  0  0  0  0  0  0
   10.7382   37.6012    9.2236 H   0  0  0  0  0  0  0  0  0  0  0  0
   10.3849   39.3839    9.2421 H   0  0  0  0  0  0  0  0  0  0  0  0
   11.2947   36.2010   14.3631 H   0  0  0  0  0  0  0  0  0  0  0  0
   12.1604   37.6979   14.9846 H   0  0  0  0  0  0  0  0  0  0  0  0
   10.7942   39.4958   16.1827 H   0  0  0  0  0  0  0  0  0  0  0  0
    9.0688   39.8152   17.9599 H   0  0  0  0  0  0  0  0  0  0  0  0
    7.4476   37.9794   18.4818 H   0  0  0  0  0  0  0  0  0  0  0  0
    6.5942   35.7555   18.0863 H   0  0  0  0  0  0  0  0  0  0  0  0
    6.6694   33.5774   16.8491 H   0  0  0  0  0  0  0  0  0  0  0  0
    8.3828   33.2178   15.0566 H   0  0  0  0  0  0  0  0  0  0  0  0
   10.0215   35.0232   14.5016 H   0  0  0  0  0  0  0  0  0  0  0  0
   11.3015   40.0922   15.2751 H   0  0  0  0  0  0  0  0  0  0  0  0
   11.1751   42.5110   14.6243 H   0  0  0  0  0  0  0  0  0  0  0  0
   10.4220   41.3599   10.5118 H   0  0  0  0  0  0  0  0  0  0  0  0
  1  2  1  0
  2  3  1  0
  3  4  1  0
  4  5  2  0
  4  6  1  0
  6  7  1  0
  6  8  1  0
  8  9  1  0
  9 10  2  0
 10 11  1  0
 11 12  2  0
 11 13  1  0
 10 14  1  0
 14 15  1  0
 15 16  1  0
 16 17  2  0
 17 18  1  0
 18 19  2  0
 19 20  1  0
 20 21  2  0
 21 22  1  0
 22 23  2  0
 23 24  1  0
 24 25  2  0
 14 26  1  0
 26 27  2  0
 27 28  1  0
 28 29  2  0
 29 30  1  0
 29 31  1  0
 31 32  2  0
 32  9  1  0
 25 16  1  0
 32 26  1  0
 25 20  1  0
  1 33  1  0
  1 34  1  0
  1 35  1  0
  2 36  1  0
  2 37  1  0
  7 38  1  0
  7 39  1  0
  7 40  1  0
  8 41  1  0
  8 42  1  0
 15 43  1  0
 15 44  1  0
 17 45  1  0
 18 46  1  0
 19 47  1  0
 21 48  1  0
 22 49  1  0
 23 50  1  0
 24 51  1  0
 27 52  1  0
 28 53  1  0
 31 54  1  0
M  CHG  1  13  -1
M  END
>  <meeko>  (302) 
{"free_energy": -4.44, "intermolecular_energy": -6.83, "internal_energy": -1.06, "cluster_size": 136, "cluster_id": 23, "rank_in_cluster": 135}

$$$$

     RDKit          3D

 54 57  0  0  0  0  0  0  0  0999 V2000
   13.6090   39.8180   19.6240 C   0  0  0  0  0  0  0  0  0  0  0  0
   14.5360   38.6230   19.8620 C   0  0  0  0  0  0  0  0  0  0  0  0
   15.8830   39.0670   19.8490 O   0  0  0  0  0  0  0  0  0  0  0  0
   16.4060   39.6100   18.7300 C   0  0  0  0  0  0  0  0  0  0  0  0
   16.1330   40.7450   18.3360 O   0  0  0  0  0  0  0  0  0  0  0  0
   17.2840   38.7110   18.1110 N   0  0  0  0  0  0  0  0  0  0  0  0
   18.7050   39.0180   17.9140 C   0  0  0  0  0  0  0  0  0  0  0  0
   16.8130   37.4170   17.5990 C   0  0  0  0  0  0  0  0  0  0  0  0
   15.4500   37.5170   16.9570 C   0  0  0  0  0  0  0  0  0  0  0  0
   14.3940   36.6250   17.0200 C   0  0  0  0  0  0  0  0  0  0  0  0
   14.2820   35.3320   17.7640 C   0  0  0  0  0  0  0  0  0  0  0  0
   13.5330   34.4400   17.3080 O   0  0  0  0  0  0  0  0  0  0  0  0
   14.9090   35.1540   18.8300 O   0  0  0  0  0  1  0  0  0  0  0  0
   13.3430   37.1070   16.2110 N   0  0  0  0  0  0  0  0  0  0  0  0
   12.0260   36.5070   15.9770 C   0  0  0  0  0  0  0  0  0  0  0  0
   10.9920   36.7710   17.0790 C   0  0  0  0  0  0  0  0  0  0  0  0
   11.2270   37.7510   18.0760 C   0  0  0  0  0  0  0  0  0  0  0  0
   10.2830   37.9960   19.0880 C   0  0  0  0  0  0  0  0  0  0  0  0
    9.0850   37.2630   19.1230 C   0  0  0  0  0  0  0  0  0  0  0  0
    8.8290   36.2840   18.1450 C   0  0  0  0  0  0  0  0  0  0  0  0
    7.6210   35.5570   18.1960 C   0  0  0  0  0  0  0  0  0  0  0  0
    7.3440   34.5740   17.2300 C   0  0  0  0  0  0  0  0  0  0  0  0
    8.2760   34.3150   16.2090 C   0  0  0  0  0  0  0  0  0  0  0  0
    9.4840   35.0360   16.1530 C   0  0  0  0  0  0  0  0  0  0  0  0
    9.7790   36.0300   17.1180 C   0  0  0  0  0  0  0  0  0  0  0  0
   13.7270   38.3080   15.6290 C   0  0  0  0  0  0  0  0  0  0  0  0
   13.0610   39.1760   14.7390 C   0  0  0  0  0  0  0  0  0  0  0  0
   13.6920   40.3540   14.3060 C   0  0  0  0  0  0  0  0  0  0  0  0
   14.9850   40.6610   14.7640 C   0  0  0  0  0  0  0  0  0  0  0  0
   15.5970   41.7970   14.3530 F   0  0  0  0  0  0  0  0  0  0  0  0
   15.6450   39.7870   15.6500 C   0  0  0  0  0  0  0  0  0  0  0  0
   15.0370   38.5890   16.0990 C   0  0  0  0  0  0  0  0  0  0  0  0
   13.2882   40.2316   20.5915 H   0  0  0  0  0  0  0  0  0  0  0  0
   14.1461   40.5910   19.0548 H   0  0  0  0  0  0  0  0  0  0  0  0
   12.7267   39.4900   19.0548 H   0  0  0  0  0  0  0  0  0  0  0  0
   14.3078   38.1691   20.8376 H   0  0  0  0  0  0  0  0  0  0  0  0
   14.3859   37.8755   19.0691 H   0  0  0  0  0  0  0  0  0  0  0  0
   19.1963   39.1241   18.8925 H   0  0  0  0  0  0  0  0  0  0  0  0
   19.1818   38.2021   17.3509 H   0  0  0  0  0  0  0  0  0  0  0  0
   18.8024   39.9579   17.3509 H   0  0  0  0  0  0  0  0  0  0  0  0
   17.5307   37.0503   16.8504 H   0  0  0  0  0  0  0  0  0  0  0  0
   16.7338   36.7263   18.4514 H   0  0  0  0  0  0  0  0  0  0  0  0
   11.6298   36.9094   15.0330 H   0  0  0  0  0  0  0  0  0  0  0  0
   12.1821   35.4184   15.9543 H   0  0  0  0  0  0  0  0  0  0  0  0
   12.1629   38.3287   18.0573 H   0  0  0  0  0  0  0  0  0  0  0  0
   10.4821   38.7615   19.8525 H   0  0  0  0  0  0  0  0  0  0  0  0
    8.3465   37.4545   19.9155 H   0  0  0  0  0  0  0  0  0  0  0  0
    6.8928   35.7602   18.9950 H   0  0  0  0  0  0  0  0  0  0  0  0
    6.4011   34.0091   17.2725 H   0  0  0  0  0  0  0  0  0  0  0  0
    8.0604   33.5467   15.4519 H   0  0  0  0  0  0  0  0  0  0  0  0
   10.2067   34.8250   15.3510 H   0  0  0  0  0  0  0  0  0  0  0  0
   12.0490   38.9309   14.3844 H   0  0  0  0  0  0  0  0  0  0  0  0
   13.1764   41.0334   13.6114 H   0  0  0  0  0  0  0  0  0  0  0  0
   16.6560   40.0408   16.0013 H   0  0  0  0  0  0  0  0  0  0  0  0
  1  2  1  0
  2  3  1  0
  3  4  1  0
  4  5  2  0
  4  6  1  0
  6  7  1  0
  6  8  1  0
  8  9  1  0
  9 10  2  0
 10 11  1  0
 11 12  2  0
 11 13  1  0
 10 14  1  0
 14 15  1  0
 15 16  1  0
 16 17  2  0
 17 18  1  0
 18 19  2  0
 19 20  1  0
 20 21  2  0
 21 22  1  0
 22 23  2  0
 23 24  1  0
 24 25  2  0
 14 26  1  0
 26 27  2  0
 27 28  1  0
 28 29  2  0
 29 30  1  0
 29 31  1  0
 31 32  2  0
 32  9  1  0
 25 16  1  0
 32 26  1  0
 25 20  1  0
  1 33  1  0
  1 34  1  0
  1 35  1  0
  2 36  1  0
  2 37  1  0
  7 38  1  0
  7 39  1  0
  7 40  1  0
  8 41  1  0
  8 42  1  0
 15 43  1  0
 15 44  1  0
 17 45  1  0
 18 46  1  0
 19 47  1  0
 21 48  1  0
 22 49  1  0
 23 50  1  0
 24 51  1  0
 27 52  1  0
 28 53  1  0
 31 54  1  0
M  CHG  1  13  -1
M  END
>  <meeko>  (303) 
{"free_energy": -3.46, "intermolecular_energy": -5.85, "internal_energy": -2.26, "cluster_size": 2, "cluster_id": 264, "rank_in_cluster": 2}

$$$$

     RDKit          3D

 54 57  0  0  0  0  0  0  0  0999 V2000
   16.8890   32.7210   17.7040 C   0  0  0  0  0  0  0  0  0  0  0  0
   16.4020   34.1340   17.3720 C   0  0  0  0  0  0  0  0  0  0  0  0
   15.6670   34.6460   18.4720 O   0  0  0  0  0  0  0  0  0  0  0  0
   15.1650   35.8980   18.4270 C   0  0  0  0  0  0  0  0  0  0  0  0
   15.8480   36.9090   18.5990 O   0  0  0  0  0  0  0  0  0  0  0  0
   13.7910   35.8670   18.1550 N   0  0  0  0  0  0  0  0  0  0  0  0
   12.8150   36.5820   18.9850 C   0  0  0  0  0  0  0  0  0  0  0  0
   13.2530   35.0860   17.0330 C   0  0  0  0  0  0  0  0  0  0  0  0
   12.3010   35.8900   16.1800 C   0  0  0  0  0  0  0  0  0  0  0  0
   12.4030   37.2100   15.7770 C   0  0  0  0  0  0  0  0  0  0  0  0
   13.4890   38.2050   16.0350 C   0  0  0  0  0  0  0  0  0  0  0  0
   13.3920   38.9550   17.0300 O   0  0  0  0  0  0  0  0  0  0  0  0
   14.4650   38.2980   15.2590 O   0  0  0  0  0  1  0  0  0  0  0  0
   11.2460   37.5510   15.0440 N   0  0  0  0  0  0  0  0  0  0  0  0
   10.9130   38.8310   14.4110 C   0  0  0  0  0  0  0  0  0  0  0  0
   10.9210   40.0390   15.3570 C   0  0  0  0  0  0  0  0  0  0  0  0
   11.5900   41.2370   15.0000 C   0  0  0  0  0  0  0  0  0  0  0  0
   11.6000   42.3460   15.8630 C   0  0  0  0  0  0  0  0  0  0  0  0
   10.9430   42.2770   17.1020 C   0  0  0  0  0  0  0  0  0  0  0  0
   10.2740   41.0980   17.4810 C   0  0  0  0  0  0  0  0  0  0  0  0
    9.6200   41.0470   18.7300 C   0  0  0  0  0  0  0  0  0  0  0  0
    8.9450   39.8790   19.1290 C   0  0  0  0  0  0  0  0  0  0  0  0
    8.9220   38.7590   18.2790 C   0  0  0  0  0  0  0  0  0  0  0  0
    9.5740   38.8040   17.0310 C   0  0  0  0  0  0  0  0  0  0  0  0
   10.2580   39.9720   16.6130 C   0  0  0  0  0  0  0  0  0  0  0  0
   10.4040   36.4490   14.9780 C   0  0  0  0  0  0  0  0  0  0  0  0
    9.1370   36.2680   14.3850 C   0  0  0  0  0  0  0  0  0  0  0  0
    8.4990   35.0190   14.4630 C   0  0  0  0  0  0  0  0  0  0  0  0
    9.1290   33.9550   15.1330 C   0  0  0  0  0  0  0  0  0  0  0  0
    8.5200   32.7480   15.2090 F   0  0  0  0  0  0  0  0  0  0  0  0
   10.3920   34.1450   15.7260 C   0  0  0  0  0  0  0  0  0  0  0  0
   11.0570   35.3940   15.6700 C   0  0  0  0  0  0  0  0  0  0  0  0
   16.9324   32.5952   18.7959 H   0  0  0  0  0  0  0  0  0  0  0  0
   16.1931   31.9836   17.2773 H   0  0  0  0  0  0  0  0  0  0  0  0
   17.8914   32.5689   17.2773 H   0  0  0  0  0  0  0  0  0  0  0  0
   17.2670   34.7838   17.1734 H   0  0  0  0  0  0  0  0  0  0  0  0
   15.7581   34.1024   16.4807 H   0  0  0  0  0  0  0  0  0  0  0  0
   13.0444   36.4140   20.0476 H   0  0  0  0  0  0  0  0  0  0  0  0
   12.8652   37.6586   18.7648 H   0  0  0  0  0  0  0  0  0  0  0  0
   11.8037   36.2095   18.7648 H   0  0  0  0  0  0  0  0  0  0  0  0
   14.0898   34.7461   16.4051 H   0  0  0  0  0  0  0  0  0  0  0  0
   12.6941   34.2361   17.4517 H   0  0  0  0  0  0  0  0  0  0  0  0
   11.6450   39.0178   13.6115 H   0  0  0  0  0  0  0  0  0  0  0  0
    9.8814   38.7342   14.0417 H   0  0  0  0  0  0  0  0  0  0  0  0
   12.1093   41.2993   14.0323 H   0  0  0  0  0  0  0  0  0  0  0  0
   12.1224   43.2680   15.5679 H   0  0  0  0  0  0  0  0  0  0  0  0
   10.9511   43.1453   17.7772 H   0  0  0  0  0  0  0  0  0  0  0  0
    9.6379   41.9236   19.3942 H   0  0  0  0  0  0  0  0  0  0  0  0
    8.4364   39.8419   20.1036 H   0  0  0  0  0  0  0  0  0  0  0  0
    8.3936   37.8455   18.5893 H   0  0  0  0  0  0  0  0  0  0  0  0
    9.5517   37.9223   16.3737 H   0  0  0  0  0  0  0  0  0  0  0  0
    8.6492   37.1039   13.8622 H   0  0  0  0  0  0  0  0  0  0  0  0
    7.5109   34.8737   14.0020 H   0  0  0  0  0  0  0  0  0  0  0  0
   10.8735   33.3032   16.2451 H   0  0  0  0  0  0  0  0  0  0  0  0
  1  2  1  0
  2  3  1  0
  3  4  1  0
  4  5  2  0
  4  6  1  0
  6  7  1  0
  6  8  1  0
  8  9  1  0
  9 10  2  0
 10 11  1  0
 11 12  2  0
 11 13  1  0
 10 14  1  0
 14 15  1  0
 15 16  1  0
 16 17  2  0
 17 18  1  0
 18 19  2  0
 19 20  1  0
 20 21  2  0
 21 22  1  0
 22 23  2  0
 23 24  1  0
 24 25  2  0
 14 26  1  0
 26 27  2  0
 27 28  1  0
 28 29  2  0
 29 30  1  0
 29 31  1  0
 31 32  2  0
 32  9  1  0
 25 16  1  0
 32 26  1  0
 25 20  1  0
  1 33  1  0
  1 34  1  0
  1 35  1  0
  2 36  1  0
  2 37  1  0
  7 38  1  0
  7 39  1  0
  7 40  1  0
  8 41  1  0
  8 42  1  0
 15 43  1  0
 15 44  1  0
 17 45  1  0
 18 46  1  0
 19 47  1  0
 21 48  1  0
 22 49  1  0
 23 50  1  0
 24 51  1  0
 27 52  1  0
 28 53  1  0
 31 54  1  0
M  CHG  1  13  -1
M  END
>  <meeko>  (304) 
{"free_energy": -4.21, "intermolecular_energy": -6.6, "internal_energy": -2.16, "cluster_size": 3, "cluster_id": 291, "rank_in_cluster": 1}

$$$$

     RDKit          3D

 54 57  0  0  0  0  0  0  0  0999 V2000
    7.8350   34.9920   17.2970 C   0  0  0  0  0  0  0  0  0  0  0  0
    8.0900   35.5360   15.8890 C   0  0  0  0  0  0  0  0  0  0  0  0
    8.4230   36.9120   15.9730 O   0  0  0  0  0  0  0  0  0  0  0  0
    9.2950   37.4520   15.0940 C   0  0  0  0  0  0  0  0  0  0  0  0
    9.2650   38.6340   14.7510 O   0  0  0  0  0  0  0  0  0  0  0  0
   10.2110   36.4870   14.6550 N   0  0  0  0  0  0  0  0  0  0  0  0
   11.3610   36.0770   15.4680 C   0  0  0  0  0  0  0  0  0  0  0  0
   10.0780   35.8560   13.3350 C   0  0  0  0  0  0  0  0  0  0  0  0
   10.0730   36.8680   12.2150 C   0  0  0  0  0  0  0  0  0  0  0  0
   10.7370   38.0800   12.1380 C   0  0  0  0  0  0  0  0  0  0  0  0
   11.6710   38.7190   13.1170 C   0  0  0  0  0  0  0  0  0  0  0  0
   12.6940   38.0920   13.4680 O   0  0  0  0  0  0  0  0  0  0  0  0
   11.4230   39.8500   13.5890 O   0  0  0  0  0  1  0  0  0  0  0  0
   10.3830   38.7170   10.9300 N   0  0  0  0  0  0  0  0  0  0  0  0
   10.8430   40.0090   10.4130 C   0  0  0  0  0  0  0  0  0  0  0  0
   12.2040   39.9740    9.7050 C   0  0  0  0  0  0  0  0  0  0  0  0
   13.0660   38.8570    9.8450 C   0  0  0  0  0  0  0  0  0  0  0  0
   14.3140   38.8210    9.1990 C   0  0  0  0  0  0  0  0  0  0  0  0
   14.7240   39.9010    8.4020 C   0  0  0  0  0  0  0  0  0  0  0  0
   13.8860   41.0220    8.2480 C   0  0  0  0  0  0  0  0  0  0  0  0
   14.3140   42.0990    7.4440 C   0  0  0  0  0  0  0  0  0  0  0  0
   13.4940   43.2290    7.2770 C   0  0  0  0  0  0  0  0  0  0  0  0
   12.2420   43.2840    7.9140 C   0  0  0  0  0  0  0  0  0  0  0  0
   11.8090   42.2130    8.7190 C   0  0  0  0  0  0  0  0  0  0  0  0
   12.6220   41.0670    8.8980 C   0  0  0  0  0  0  0  0  0  0  0  0
    9.4920   37.9120   10.2320 C   0  0  0  0  0  0  0  0  0  0  0  0
    8.8340   38.0880    8.9970 C   0  0  0  0  0  0  0  0  0  0  0  0
    7.9740   37.0890    8.5120 C   0  0  0  0  0  0  0  0  0  0  0  0
    7.7750   35.9170    9.2620 C   0  0  0  0  0  0  0  0  0  0  0  0
    6.9500   34.9480    8.7980 F   0  0  0  0  0  0  0  0  0  0  0  0
    8.4330   35.7500   10.4960 C   0  0  0  0  0  0  0  0  0  0  0  0
    9.3000   36.7420   11.0140 C   0  0  0  0  0  0  0  0  0  0  0  0
    8.1788   35.7254   18.0413 H   0  0  0  0  0  0  0  0  0  0  0  0
    6.7583   34.8111   17.4307 H   0  0  0  0  0  0  0  0  0  0  0  0
    8.3847   34.0486   17.4307 H   0  0  0  0  0  0  0  0  0  0  0  0
    8.9215   34.9840   15.4265 H   0  0  0  0  0  0  0  0  0  0  0  0
    7.1852   35.4119   15.2758 H   0  0  0  0  0  0  0  0  0  0  0  0
   11.1070   36.1675   16.5344 H   0  0  0  0  0  0  0  0  0  0  0  0
   11.6176   35.0320   15.2396 H   0  0  0  0  0  0  0  0  0  0  0  0
   12.2208   36.7240   15.2396 H   0  0  0  0  0  0  0  0  0  0  0  0
   10.9222   35.1669   13.1855 H   0  0  0  0  0  0  0  0  0  0  0  0
    9.1160   35.3231   13.3118 H   0  0  0  0  0  0  0  0  0  0  0  0
   10.0941   40.3763    9.6959 H   0  0  0  0  0  0  0  0  0  0  0  0
   10.9669   40.6648   11.2874 H   0  0  0  0  0  0  0  0  0  0  0  0
   12.7536   38.0061   10.4682 H   0  0  0  0  0  0  0  0  0  0  0  0
   14.9696   37.9458    9.3182 H   0  0  0  0  0  0  0  0  0  0  0  0
   15.7009   39.8717    7.8972 H   0  0  0  0  0  0  0  0  0  0  0  0
   15.2935   42.0547    6.9455 H   0  0  0  0  0  0  0  0  0  0  0  0
   13.8312   44.0674    6.6498 H   0  0  0  0  0  0  0  0  0  0  0  0
   11.5986   44.1665    7.7831 H   0  0  0  0  0  0  0  0  0  0  0  0
   10.8284   42.2669    9.2144 H   0  0  0  0  0  0  0  0  0  0  0  0
    8.9942   39.0070    8.4140 H   0  0  0  0  0  0  0  0  0  0  0  0
    7.4585   37.2232    7.5496 H   0  0  0  0  0  0  0  0  0  0  0  0
    8.2693   34.8267   11.0710 H   0  0  0  0  0  0  0  0  0  0  0  0
  1  2  1  0
  2  3  1  0
  3  4  1  0
  4  5  2  0
  4  6  1  0
  6  7  1  0
  6  8  1  0
  8  9  1  0
  9 10  2  0
 10 11  1  0
 11 12  2  0
 11 13  1  0
 10 14  1  0
 14 15  1  0
 15 16  1  0
 16 17  2  0
 17 18  1  0
 18 19  2  0
 19 20  1  0
 20 21  2  0
 21 22  1  0
 22 23  2  0
 23 24  1  0
 24 25  2  0
 14 26  1  0
 26 27  2  0
 27 28  1  0
 28 29  2  0
 29 30  1  0
 29 31  1  0
 31 32  2  0
 32  9  1  0
 25 16  1  0
 32 26  1  0
 25 20  1  0
  1 33  1  0
  1 34  1  0
  1 35  1  0
  2 36  1  0
  2 37  1  0
  7 38  1  0
  7 39  1  0
  7 40  1  0
  8 41  1  0
  8 42  1  0
 15 43  1  0
 15 44  1  0
 17 45  1  0
 18 46  1  0
 19 47  1  0
 21 48  1  0
 22 49  1  0
 23 50  1  0
 24 51  1  0
 27 52  1  0
 28 53  1  0
 31 54  1  0
M  CHG  1  13  -1
M  END
>  <meeko>  (305) 
{"free_energy": -6.23, "intermolecular_energy": -8.62, "internal_energy": -1.6, "cluster_size": 318, "cluster_id": 5, "rank_in_cluster": 105}

$$$$

     RDKit          3D

 54 57  0  0  0  0  0  0  0  0999 V2000
   17.7980   40.3760    3.7210 C   0  0  0  0  0  0  0  0  0  0  0  0
   18.2180   39.4590    4.8730 C   0  0  0  0  0  0  0  0  0  0  0  0
   17.6220   39.9180    6.0760 O   0  0  0  0  0  0  0  0  0  0  0  0
   17.6420   41.2320    6.3820 C   0  0  0  0  0  0  0  0  0  0  0  0
   18.6810   41.8770    6.5330 O   0  0  0  0  0  0  0  0  0  0  0  0
   16.3370   41.7320    6.4890 N   0  0  0  0  0  0  0  0  0  0  0  0
   16.0620   43.1610    6.6730 C   0  0  0  0  0  0  0  0  0  0  0  0
   15.1730   40.8360    6.4530 C   0  0  0  0  0  0  0  0  0  0  0  0
   14.4380   40.7990    7.7720 C   0  0  0  0  0  0  0  0  0  0  0  0
   13.6020   41.7520    8.3250 C   0  0  0  0  0  0  0  0  0  0  0  0
   13.1580   43.0690    7.7710 C   0  0  0  0  0  0  0  0  0  0  0  0
   13.5850   44.1180    8.2990 O   0  0  0  0  0  0  0  0  0  0  0  0
   12.3600   43.1180    6.8090 O   0  0  0  0  0  1  0  0  0  0  0  0
   13.1940   41.3120    9.6030 N   0  0  0  0  0  0  0  0  0  0  0  0
   12.3020   41.9810   10.5540 C   0  0  0  0  0  0  0  0  0  0  0  0
   10.8390   41.5240   10.4980 C   0  0  0  0  0  0  0  0  0  0  0  0
   10.4400   40.4710    9.6370 C   0  0  0  0  0  0  0  0  0  0  0  0
    9.1010   40.0490    9.5820 C   0  0  0  0  0  0  0  0  0  0  0  0
    8.1340   40.6740   10.3850 C   0  0  0  0  0  0  0  0  0  0  0  0
    8.5040   41.7240   11.2470 C   0  0  0  0  0  0  0  0  0  0  0  0
    7.5200   42.3400   12.0460 C   0  0  0  0  0  0  0  0  0  0  0  0
    7.8670   43.3910   12.9140 C   0  0  0  0  0  0  0  0  0  0  0  0
    9.2020   43.8270   12.9840 C   0  0  0  0  0  0  0  0  0  0  0  0
   10.1900   43.2160   12.1880 C   0  0  0  0  0  0  0  0  0  0  0  0
    9.8570   42.1560   11.3090 C   0  0  0  0  0  0  0  0  0  0  0  0
   13.7700   40.0760    9.8670 C   0  0  0  0  0  0  0  0  0  0  0  0
   13.6970   39.2260   10.9890 C   0  0  0  0  0  0  0  0  0  0  0  0
   14.3880   38.0030   10.9870 C   0  0  0  0  0  0  0  0  0  0  0  0
   15.1470   37.6330    9.8640 C   0  0  0  0  0  0  0  0  0  0  0  0
   15.8120   36.4530    9.8550 F   0  0  0  0  0  0  0  0  0  0  0  0
   15.2180   38.4890    8.7480 C   0  0  0  0  0  0  0  0  0  0  0  0
   14.5390   39.7310    8.7230 C   0  0  0  0  0  0  0  0  0  0  0  0
   17.3725   41.3050    4.1283 H   0  0  0  0  0  0  0  0  0  0  0  0
   18.6765   40.6149    3.1035 H   0  0  0  0  0  0  0  0  0  0  0  0
   17.0433   39.8669    3.1035 H   0  0  0  0  0  0  0  0  0  0  0  0
   17.8842   38.4316    4.6658 H   0  0  0  0  0  0  0  0  0  0  0  0
   19.3132   39.4718    4.9750 H   0  0  0  0  0  0  0  0  0  0  0  0
   16.0178   43.3905    7.7479 H   0  0  0  0  0  0  0  0  0  0  0  0
   16.8629   43.7518    6.2045 H   0  0  0  0  0  0  0  0  0  0  0  0
   15.0990   43.4124    6.2045 H   0  0  0  0  0  0  0  0  0  0  0  0
   14.4814   41.1854    5.6722 H   0  0  0  0  0  0  0  0  0  0  0  0
   15.5367   39.8196    6.2414 H   0  0  0  0  0  0  0  0  0  0  0  0
   12.6807   41.7913   11.5692 H   0  0  0  0  0  0  0  0  0  0  0  0
   12.3031   43.0466   10.2810 H   0  0  0  0  0  0  0  0  0  0  0  0
   11.1902   39.9767    9.0022 H   0  0  0  0  0  0  0  0  0  0  0  0
    8.8103   39.2285    8.9094 H   0  0  0  0  0  0  0  0  0  0  0  0
    7.0859   40.3430   10.3407 H   0  0  0  0  0  0  0  0  0  0  0  0
    6.4762   41.9974   11.9906 H   0  0  0  0  0  0  0  0  0  0  0  0
    7.0966   43.8702   13.5360 H   0  0  0  0  0  0  0  0  0  0  0  0
    9.4755   44.6482   13.6629 H   0  0  0  0  0  0  0  0  0  0  0  0
   11.2312   43.5654   12.2493 H   0  0  0  0  0  0  0  0  0  0  0  0
   13.0999   39.5199   11.8648 H   0  0  0  0  0  0  0  0  0  0  0  0
   14.3351   37.3375   11.8613 H   0  0  0  0  0  0  0  0  0  0  0  0
   15.8150   38.1855    7.8754 H   0  0  0  0  0  0  0  0  0  0  0  0
  1  2  1  0
  2  3  1  0
  3  4  1  0
  4  5  2  0
  4  6  1  0
  6  7  1  0
  6  8  1  0
  8  9  1  0
  9 10  2  0
 10 11  1  0
 11 12  2  0
 11 13  1  0
 10 14  1  0
 14 15  1  0
 15 16  1  0
 16 17  2  0
 17 18  1  0
 18 19  2  0
 19 20  1  0
 20 21  2  0
 21 22  1  0
 22 23  2  0
 23 24  1  0
 24 25  2  0
 14 26  1  0
 26 27  2  0
 27 28  1  0
 28 29  2  0
 29 30  1  0
 29 31  1  0
 31 32  2  0
 32  9  1  0
 25 16  1  0
 32 26  1  0
 25 20  1  0
  1 33  1  0
  1 34  1  0
  1 35  1  0
  2 36  1  0
  2 37  1  0
  7 38  1  0
  7 39  1  0
  7 40  1  0
  8 41  1  0
  8 42  1  0
 15 43  1  0
 15 44  1  0
 17 45  1  0
 18 46  1  0
 19 47  1  0
 21 48  1  0
 22 49  1  0
 23 50  1  0
 24 51  1  0
 27 52  1  0
 28 53  1  0
 31 54  1  0
M  CHG  1  13  -1
M  END
>  <meeko>  (306) 
{"free_energy": -5.18, "intermolecular_energy": -7.56, "internal_energy": -1.72, "cluster_size": 30, "cluster_id": 35, "rank_in_cluster": 9}

$$$$

     RDKit          3D

 54 57  0  0  0  0  0  0  0  0999 V2000
   14.6160   44.1790    6.4720 C   0  0  0  0  0  0  0  0  0  0  0  0
   15.1040   44.8260    7.7700 C   0  0  0  0  0  0  0  0  0  0  0  0
   13.9950   45.0460    8.6270 O   0  0  0  0  0  0  0  0  0  0  0  0
   12.7650   44.6260    8.2630 C   0  0  0  0  0  0  0  0  0  0  0  0
   11.9800   45.3130    7.6080 O   0  0  0  0  0  0  0  0  0  0  0  0
   12.5330   43.3240    8.7270 N   0  0  0  0  0  0  0  0  0  0  0  0
   12.2470   42.2100    7.8160 C   0  0  0  0  0  0  0  0  0  0  0  0
   12.5370   43.0160   10.1630 C   0  0  0  0  0  0  0  0  0  0  0  0
   12.0520   41.6140   10.4490 C   0  0  0  0  0  0  0  0  0  0  0  0
   10.8340   41.2060   10.9630 C   0  0  0  0  0  0  0  0  0  0  0  0
    9.6410   42.0210   11.3510 C   0  0  0  0  0  0  0  0  0  0  0  0
    9.7990   42.9810   12.1350 O   0  0  0  0  0  0  0  0  0  0  0  0
    8.5050   41.7350   10.9130 O   0  0  0  0  0  1  0  0  0  0  0  0
   10.8530   39.8030   11.1180 N   0  0  0  0  0  0  0  0  0  0  0  0
    9.7890   38.9270   11.6160 C   0  0  0  0  0  0  0  0  0  0  0  0
    9.4660   37.7270   10.7150 C   0  0  0  0  0  0  0  0  0  0  0  0
    9.9090   36.4250   11.0550 C   0  0  0  0  0  0  0  0  0  0  0  0
    9.6150   35.3230   10.2330 C   0  0  0  0  0  0  0  0  0  0  0  0
    8.8750   35.5040    9.0540 C   0  0  0  0  0  0  0  0  0  0  0  0
    8.4260   36.7890    8.6940 C   0  0  0  0  0  0  0  0  0  0  0  0
    7.6840   36.9520    7.5050 C   0  0  0  0  0  0  0  0  0  0  0  0
    7.2250   38.2260    7.1260 C   0  0  0  0  0  0  0  0  0  0  0  0
    7.5070   39.3410    7.9350 C   0  0  0  0  0  0  0  0  0  0  0  0
    8.2480   39.1840    9.1220 C   0  0  0  0  0  0  0  0  0  0  0  0
    8.7180   37.9080    9.5200 C   0  0  0  0  0  0  0  0  0  0  0  0
   12.0850   39.3130   10.7020 C   0  0  0  0  0  0  0  0  0  0  0  0
   12.6130   38.0060   10.6650 C   0  0  0  0  0  0  0  0  0  0  0  0
   13.9120   37.7890   10.1780 C   0  0  0  0  0  0  0  0  0  0  0  0
   14.6790   38.8780    9.7280 C   0  0  0  0  0  0  0  0  0  0  0  0
   15.9310   38.6750    9.2540 F   0  0  0  0  0  0  0  0  0  0  0  0
   14.1460   40.1810    9.7710 C   0  0  0  0  0  0  0  0  0  0  0  0
   12.8420   40.4320   10.2630 C   0  0  0  0  0  0  0  0  0  0  0  0
   13.9693   43.3216    6.7102 H   0  0  0  0  0  0  0  0  0  0  0  0
   14.0469   44.9160    5.8864 H   0  0  0  0  0  0  0  0  0  0  0  0
   15.4810   43.8343    5.8864 H   0  0  0  0  0  0  0  0  0  0  0  0
   15.8250   44.1590    8.2652 H   0  0  0  0  0  0  0  0  0  0  0  0
   15.5925   45.7853    7.5439 H   0  0  0  0  0  0  0  0  0  0  0  0
   12.0154   41.3079    8.4013 H   0  0  0  0  0  0  0  0  0  0  0  0
   11.3857   42.4668    7.1819 H   0  0  0  0  0  0  0  0  0  0  0  0
   13.1255   42.0201    7.1819 H   0  0  0  0  0  0  0  0  0  0  0  0
   13.5635   43.1201   10.5445 H   0  0  0  0  0  0  0  0  0  0  0  0
   11.8511   43.7178   10.6601 H   0  0  0  0  0  0  0  0  0  0  0  0
   10.0952   38.5428   12.6002 H   0  0  0  0  0  0  0  0  0  0  0  0
    8.8763   39.5399   11.6529 H   0  0  0  0  0  0  0  0  0  0  0  0
   10.4916   36.2741   11.9758 H   0  0  0  0  0  0  0  0  0  0  0  0
    9.9649   34.3187   10.5138 H   0  0  0  0  0  0  0  0  0  0  0  0
    8.6458   34.6415    8.4110 H   0  0  0  0  0  0  0  0  0  0  0  0
    7.4638   36.0795    6.8724 H   0  0  0  0  0  0  0  0  0  0  0  0
    6.6466   38.3501    6.1986 H   0  0  0  0  0  0  0  0  0  0  0  0
    7.1480   40.3380    7.6400 H   0  0  0  0  0  0  0  0  0  0  0  0
    8.4645   40.0624    9.7477 H   0  0  0  0  0  0  0  0  0  0  0  0
   12.0080   37.1575   11.0172 H   0  0  0  0  0  0  0  0  0  0  0  0
   14.3279   36.7711   10.1487 H   0  0  0  0  0  0  0  0  0  0  0  0
   14.7569   41.0233    9.4141 H   0  0  0  0  0  0  0  0  0  0  0  0
  1  2  1  0
  2  3  1  0
  3  4  1  0
  4  5  2  0
  4  6  1  0
  6  7  1  0
  6  8  1  0
  8  9  1  0
  9 10  2  0
 10 11  1  0
 11 12  2  0
 11 13  1  0
 10 14  1  0
 14 15  1  0
 15 16  1  0
 16 17  2  0
 17 18  1  0
 18 19  2  0
 19 20  1  0
 20 21  2  0
 21 22  1  0
 22 23  2  0
 23 24  1  0
 24 25  2  0
 14 26  1  0
 26 27  2  0
 27 28  1  0
 28 29  2  0
 29 30  1  0
 29 31  1  0
 31 32  2  0
 32  9  1  0
 25 16  1  0
 32 26  1  0
 25 20  1  0
  1 33  1  0
  1 34  1  0
  1 35  1  0
  2 36  1  0
  2 37  1  0
  7 38  1  0
  7 39  1  0
  7 40  1  0
  8 41  1  0
  8 42  1  0
 15 43  1  0
 15 44  1  0
 17 45  1  0
 18 46  1  0
 19 47  1  0
 21 48  1  0
 22 49  1  0
 23 50  1  0
 24 51  1  0
 27 52  1  0
 28 53  1  0
 31 54  1  0
M  CHG  1  13  -1
M  END
>  <meeko>  (307) 
{"free_energy": -5.84, "intermolecular_energy": -8.23, "internal_energy": -1.83, "cluster_size": 96, "cluster_id": 3, "rank_in_cluster": 65}

$$$$

     RDKit          3D

 54 57  0  0  0  0  0  0  0  0999 V2000
   17.0330   39.0400   10.8130 C   0  0  0  0  0  0  0  0  0  0  0  0
   16.0330   40.1720   11.0600 C   0  0  0  0  0  0  0  0  0  0  0  0
   14.7240   39.6310   11.1340 O   0  0  0  0  0  0  0  0  0  0  0  0
   14.2330   39.2050   12.3180 C   0  0  0  0  0  0  0  0  0  0  0  0
   13.7460   38.0860   12.4870 O   0  0  0  0  0  0  0  0  0  0  0  0
   14.3680   40.2030   13.2920 N   0  0  0  0  0  0  0  0  0  0  0  0
   15.4080   40.1480   14.3260 C   0  0  0  0  0  0  0  0  0  0  0  0
   13.4480   41.3470   13.3440 C   0  0  0  0  0  0  0  0  0  0  0  0
   12.3650   41.2580   12.2940 C   0  0  0  0  0  0  0  0  0  0  0  0
   11.1490   40.6020   12.3570 C   0  0  0  0  0  0  0  0  0  0  0  0
   10.5410   39.8260   13.4830 C   0  0  0  0  0  0  0  0  0  0  0  0
    9.5290   40.2890   14.0540 O   0  0  0  0  0  0  0  0  0  0  0  0
   11.0460   38.7460   13.8580 O   0  0  0  0  0  1  0  0  0  0  0  0
   10.4930   40.7400   11.1150 N   0  0  0  0  0  0  0  0  0  0  0  0
    9.1800   40.2240   10.7160 C   0  0  0  0  0  0  0  0  0  0  0  0
    9.1500   38.7270   10.3810 C   0  0  0  0  0  0  0  0  0  0  0  0
    9.8250   37.7870   11.1990 C   0  0  0  0  0  0  0  0  0  0  0  0
    9.8000   36.4140   10.8960 C   0  0  0  0  0  0  0  0  0  0  0  0
    9.1010   35.9570    9.7680 C   0  0  0  0  0  0  0  0  0  0  0  0
    8.4240   36.8720    8.9390 C   0  0  0  0  0  0  0  0  0  0  0  0
    7.7270   36.3950    7.8090 C   0  0  0  0  0  0  0  0  0  0  0  0
    7.0440   37.2900    6.9670 C   0  0  0  0  0  0  0  0  0  0  0  0
    7.0560   38.6670    7.2540 C   0  0  0  0  0  0  0  0  0  0  0  0
    7.7510   39.1500    8.3800 C   0  0  0  0  0  0  0  0  0  0  0  0
    8.4440   38.2610    9.2390 C   0  0  0  0  0  0  0  0  0  0  0  0
   11.2910   41.4850   10.2570 C   0  0  0  0  0  0  0  0  0  0  0  0
   11.1090   41.8900    8.9180 C   0  0  0  0  0  0  0  0  0  0  0  0
   12.0930   42.6620    8.2790 C   0  0  0  0  0  0  0  0  0  0  0  0
   13.2550   43.0280    8.9810 C   0  0  0  0  0  0  0  0  0  0  0  0
   14.2060   43.7760    8.3720 F   0  0  0  0  0  0  0  0  0  0  0  0
   13.4310   42.6170   10.3160 C   0  0  0  0  0  0  0  0  0  0  0  0
   12.4600   41.8330   10.9850 C   0  0  0  0  0  0  0  0  0  0  0  0
   17.3834   38.6434   11.7773 H   0  0  0  0  0  0  0  0  0  0  0  0
   16.5441   38.2369   10.2421 H   0  0  0  0  0  0  0  0  0  0  0  0
   17.8903   39.4261   10.2421 H   0  0  0  0  0  0  0  0  0  0  0  0
   16.2761   40.6775   12.0063 H   0  0  0  0  0  0  0  0  0  0  0  0
   16.0863   40.8982   10.2355 H   0  0  0  0  0  0  0  0  0  0  0  0
   14.9382   40.1728   15.3203 H   0  0  0  0  0  0  0  0  0  0  0  0
   15.9852   39.2181   14.2164 H   0  0  0  0  0  0  0  0  0  0  0  0
   16.0801   41.0119   14.2164 H   0  0  0  0  0  0  0  0  0  0  0  0
   12.9764   41.3773   14.3373 H   0  0  0  0  0  0  0  0  0  0  0  0
   14.0321   42.2586   13.1496 H   0  0  0  0  0  0  0  0  0  0  0  0
    8.4765   40.4036   11.5424 H   0  0  0  0  0  0  0  0  0  0  0  0
    8.9082   40.7532    9.7908 H   0  0  0  0  0  0  0  0  0  0  0  0
   10.3767   38.1366   12.0841 H   0  0  0  0  0  0  0  0  0  0  0  0
   10.3283   35.6982   11.5430 H   0  0  0  0  0  0  0  0  0  0  0  0
    9.0820   34.8829    9.5313 H   0  0  0  0  0  0  0  0  0  0  0  0
    7.7179   35.3179    7.5857 H   0  0  0  0  0  0  0  0  0  0  0  0
    6.5019   36.9146    6.0865 H   0  0  0  0  0  0  0  0  0  0  0  0
    6.5211   39.3687    6.5972 H   0  0  0  0  0  0  0  0  0  0  0  0
    7.7559   40.2288    8.5949 H   0  0  0  0  0  0  0  0  0  0  0  0
   10.1971   41.6014    8.3748 H   0  0  0  0  0  0  0  0  0  0  0  0
   11.9553   42.9787    7.2346 H   0  0  0  0  0  0  0  0  0  0  0  0
   14.3449   42.9121   10.8523 H   0  0  0  0  0  0  0  0  0  0  0  0
  1  2  1  0
  2  3  1  0
  3  4  1  0
  4  5  2  0
  4  6  1  0
  6  7  1  0
  6  8  1  0
  8  9  1  0
  9 10  2  0
 10 11  1  0
 11 12  2  0
 11 13  1  0
 10 14  1  0
 14 15  1  0
 15 16  1  0
 16 17  2  0
 17 18  1  0
 18 19  2  0
 19 20  1  0
 20 21  2  0
 21 22  1  0
 22 23  2  0
 23 24  1  0
 24 25  2  0
 14 26  1  0
 26 27  2  0
 27 28  1  0
 28 29  2  0
 29 30  1  0
 29 31  1  0
 31 32  2  0
 32  9  1  0
 25 16  1  0
 32 26  1  0
 25 20  1  0
  1 33  1  0
  1 34  1  0
  1 35  1  0
  2 36  1  0
  2 37  1  0
  7 38  1  0
  7 39  1  0
  7 40  1  0
  8 41  1  0
  8 42  1  0
 15 43  1  0
 15 44  1  0
 17 45  1  0
 18 46  1  0
 19 47  1  0
 21 48  1  0
 22 49  1  0
 23 50  1  0
 24 51  1  0
 27 52  1  0
 28 53  1  0
 31 54  1  0
M  CHG  1  13  -1
M  END
>  <meeko>  (308) 
{"free_energy": -5.49, "intermolecular_energy": -7.88, "internal_energy": -2.05, "cluster_size": 167, "cluster_id": 22, "rank_in_cluster": 93}

$$$$

     RDKit          3D

 54 57  0  0  0  0  0  0  0  0999 V2000
    9.6670   40.7980    9.4700 C   0  0  0  0  0  0  0  0  0  0  0  0
   10.1370   41.5350   10.7270 C   0  0  0  0  0  0  0  0  0  0  0  0
   11.4590   41.1280   11.0400 O   0  0  0  0  0  0  0  0  0  0  0  0
   11.9650   41.3610   12.2700 C   0  0  0  0  0  0  0  0  0  0  0  0
   12.6290   42.3600   12.5510 O   0  0  0  0  0  0  0  0  0  0  0  0
   11.6220   40.3240   13.1470 N   0  0  0  0  0  0  0  0  0  0  0  0
   11.2200   38.9970   12.6670 C   0  0  0  0  0  0  0  0  0  0  0  0
   11.6180   40.5270   14.6020 C   0  0  0  0  0  0  0  0  0  0  0  0
   11.9740   39.2670   15.3560 C   0  0  0  0  0  0  0  0  0  0  0  0
   11.1420   38.4140   16.0600 C   0  0  0  0  0  0  0  0  0  0  0  0
    9.6590   38.4690   16.2480 C   0  0  0  0  0  0  0  0  0  0  0  0
    8.9290   37.8440   15.4500 O   0  0  0  0  0  0  0  0  0  0  0  0
    9.1600   39.1430   17.1760 O   0  0  0  0  0  1  0  0  0  0  0  0
   11.9270   37.4030   16.6540 N   0  0  0  0  0  0  0  0  0  0  0  0
   11.4850   36.2770   17.4820 C   0  0  0  0  0  0  0  0  0  0  0  0
   10.4740   35.3390   16.8090 C   0  0  0  0  0  0  0  0  0  0  0  0
   10.8720   34.4740   15.7590 C   0  0  0  0  0  0  0  0  0  0  0  0
    9.9490   33.6140   15.1400 C   0  0  0  0  0  0  0  0  0  0  0  0
    8.6090   33.6040   15.5580 C   0  0  0  0  0  0  0  0  0  0  0  0
    8.1880   34.4560   16.5970 C   0  0  0  0  0  0  0  0  0  0  0  0
    6.8370   34.4330   17.0040 C   0  0  0  0  0  0  0  0  0  0  0  0
    6.3950   35.2750   18.0390 C   0  0  0  0  0  0  0  0  0  0  0  0
    7.3030   36.1420   18.6720 C   0  0  0  0  0  0  0  0  0  0  0  0
    8.6520   36.1700   18.2710 C   0  0  0  0  0  0  0  0  0  0  0  0
    9.1160   35.3280   17.2290 C   0  0  0  0  0  0  0  0  0  0  0  0
   13.2620   37.6090   16.3310 C   0  0  0  0  0  0  0  0  0  0  0  0
   14.4330   36.9050   16.6790 C   0  0  0  0  0  0  0  0  0  0  0  0
   15.6790   37.3360   16.1970 C   0  0  0  0  0  0  0  0  0  0  0  0
   15.7510   38.4690   15.3670 C   0  0  0  0  0  0  0  0  0  0  0  0
   16.9500   38.8880   14.8960 F   0  0  0  0  0  0  0  0  0  0  0  0
   14.5780   39.1700   15.0270 C   0  0  0  0  0  0  0  0  0  0  0  0
   13.3080   38.7630   15.5040 C   0  0  0  0  0  0  0  0  0  0  0  0
    9.0966   39.9036    9.7611 H   0  0  0  0  0  0  0  0  0  0  0  0
    9.0261   41.4634    8.8729 H   0  0  0  0  0  0  0  0  0  0  0  0
   10.5406   40.4975    8.8729 H   0  0  0  0  0  0  0  0  0  0  0  0
   10.1194   42.6198   10.5456 H   0  0  0  0  0  0  0  0  0  0  0  0
    9.4683   41.2959   11.5670 H   0  0  0  0  0  0  0  0  0  0  0  0
   11.0212   38.3407   13.5271 H   0  0  0  0  0  0  0  0  0  0  0  0
   10.3092   39.0881   12.0570 H   0  0  0  0  0  0  0  0  0  0  0  0
   12.0283   38.5673   12.0570 H   0  0  0  0  0  0  0  0  0  0  0  0
   12.3505   41.3084   14.8525 H   0  0  0  0  0  0  0  0  0  0  0  0
   10.6005   40.8215   14.8987 H   0  0  0  0  0  0  0  0  0  0  0  0
   12.3710   35.6852   17.7554 H   0  0  0  0  0  0  0  0  0  0  0  0
   10.9699   36.7151   18.3496 H   0  0  0  0  0  0  0  0  0  0  0  0
   11.9196   34.4759   15.4235 H   0  0  0  0  0  0  0  0  0  0  0  0
   10.2766   32.9485   14.3277 H   0  0  0  0  0  0  0  0  0  0  0  0
    7.8872   32.9300   15.0735 H   0  0  0  0  0  0  0  0  0  0  0  0
    6.1272   33.7536   16.5094 H   0  0  0  0  0  0  0  0  0  0  0  0
    5.3410   35.2557   18.3531 H   0  0  0  0  0  0  0  0  0  0  0  0
    6.9582   36.8003   19.4830 H   0  0  0  0  0  0  0  0  0  0  0  0
    9.3541   36.8529   18.7717 H   0  0  0  0  0  0  0  0  0  0  0  0
   14.3703   36.0188   17.3276 H   0  0  0  0  0  0  0  0  0  0  0  0
   16.5949   36.7900   16.4673 H   0  0  0  0  0  0  0  0  0  0  0  0
   14.6497   40.0538   14.3761 H   0  0  0  0  0  0  0  0  0  0  0  0
  1  2  1  0
  2  3  1  0
  3  4  1  0
  4  5  2  0
  4  6  1  0
  6  7  1  0
  6  8  1  0
  8  9  1  0
  9 10  2  0
 10 11  1  0
 11 12  2  0
 11 13  1  0
 10 14  1  0
 14 15  1  0
 15 16  1  0
 16 17  2  0
 17 18  1  0
 18 19  2  0
 19 20  1  0
 20 21  2  0
 21 22  1  0
 22 23  2  0
 23 24  1  0
 24 25  2  0
 14 26  1  0
 26 27  2  0
 27 28  1  0
 28 29  2  0
 29 30  1  0
 29 31  1  0
 31 32  2  0
 32  9  1  0
 25 16  1  0
 32 26  1  0
 25 20  1  0
  1 33  1  0
  1 34  1  0
  1 35  1  0
  2 36  1  0
  2 37  1  0
  7 38  1  0
  7 39  1  0
  7 40  1  0
  8 41  1  0
  8 42  1  0
 15 43  1  0
 15 44  1  0
 17 45  1  0
 18 46  1  0
 19 47  1  0
 21 48  1  0
 22 49  1  0
 23 50  1  0
 24 51  1  0
 27 52  1  0
 28 53  1  0
 31 54  1  0
M  CHG  1  13  -1
M  END
>  <meeko>  (309) 
{"free_energy": -4.7, "intermolecular_energy": -7.08, "internal_energy": -1.89, "cluster_size": 38, "cluster_id": 116, "rank_in_cluster": 18}

$$$$

     RDKit          3D

 54 57  0  0  0  0  0  0  0  0999 V2000
    9.9800   40.5900   13.9790 C   0  0  0  0  0  0  0  0  0  0  0  0
   11.1210   39.7420   14.5470 C   0  0  0  0  0  0  0  0  0  0  0  0
   12.2940   40.5350   14.6340 O   0  0  0  0  0  0  0  0  0  0  0  0
   13.1430   40.6030   13.5870 C   0  0  0  0  0  0  0  0  0  0  0  0
   13.3310   41.6290   12.9310 O   0  0  0  0  0  0  0  0  0  0  0  0
   13.7620   39.3640   13.3750 N   0  0  0  0  0  0  0  0  0  0  0  0
   14.7590   38.8200   14.3040 C   0  0  0  0  0  0  0  0  0  0  0  0
   13.4620   38.5560   12.1860 C   0  0  0  0  0  0  0  0  0  0  0  0
   12.2230   39.0350   11.4660 C   0  0  0  0  0  0  0  0  0  0  0  0
   10.9540   38.4830   11.4630 C   0  0  0  0  0  0  0  0  0  0  0  0
   10.4340   37.2840   12.1900 C   0  0  0  0  0  0  0  0  0  0  0  0
    9.6150   37.4540   13.1200 O   0  0  0  0  0  0  0  0  0  0  0  0
   10.8250   36.1360   11.8870 O   0  0  0  0  0  1  0  0  0  0  0  0
   10.1330   39.2370   10.5960 N   0  0  0  0  0  0  0  0  0  0  0  0
    8.7160   39.0370   10.2820 C   0  0  0  0  0  0  0  0  0  0  0  0
    8.4090   37.7780    9.4600 C   0  0  0  0  0  0  0  0  0  0  0  0
    8.7610   36.4920    9.9410 C   0  0  0  0  0  0  0  0  0  0  0  0
    8.4820   35.3370    9.1910 C   0  0  0  0  0  0  0  0  0  0  0  0
    7.8470   35.4450    7.9440 C   0  0  0  0  0  0  0  0  0  0  0  0
    7.4880   36.7110    7.4430 C   0  0  0  0  0  0  0  0  0  0  0  0
    6.8510   36.8020    6.1880 C   0  0  0  0  0  0  0  0  0  0  0  0
    6.4840   38.0560    5.6680 C   0  0  0  0  0  0  0  0  0  0  0  0
    6.7540   39.2240    6.4040 C   0  0  0  0  0  0  0  0  0  0  0  0
    7.3900   39.1400    7.6570 C   0  0  0  0  0  0  0  0  0  0  0  0
    7.7660   37.8850    8.1960 C   0  0  0  0  0  0  0  0  0  0  0  0
   10.8780   40.2710   10.0440 C   0  0  0  0  0  0  0  0  0  0  0  0
   10.5410   41.2830    9.1220 C   0  0  0  0  0  0  0  0  0  0  0  0
   11.5070   42.2270    8.7340 C   0  0  0  0  0  0  0  0  0  0  0  0
   12.8050   42.1560    9.2690 C   0  0  0  0  0  0  0  0  0  0  0  0
   13.7390   43.0640    8.9010 F   0  0  0  0  0  0  0  0  0  0  0  0
   13.1350   41.1390   10.1860 C   0  0  0  0  0  0  0  0  0  0  0  0
   12.1850   40.1710   10.5920 C   0  0  0  0  0  0  0  0  0  0  0  0
    9.3979   41.0226   14.8060 H   0  0  0  0  0  0  0  0  0  0  0  0
   10.3969   41.3992   13.3614 H   0  0  0  0  0  0  0  0  0  0  0  0
    9.3254   39.9575   13.3614 H   0  0  0  0  0  0  0  0  0  0  0  0
   10.8467   39.3800   15.5489 H   0  0  0  0  0  0  0  0  0  0  0  0
   11.3053   38.8814   13.8871 H   0  0  0  0  0  0  0  0  0  0  0  0
   14.4317   38.9986   15.3389 H   0  0  0  0  0  0  0  0  0  0  0  0
   14.8662   37.7384   14.1348 H   0  0  0  0  0  0  0  0  0  0  0  0
   15.7265   39.3152   14.1348 H   0  0  0  0  0  0  0  0  0  0  0  0
   14.3164   38.6117   11.4954 H   0  0  0  0  0  0  0  0  0  0  0  0
   13.2808   37.5230   12.5176 H   0  0  0  0  0  0  0  0  0  0  0  0
    8.1619   38.9700   11.2299 H   0  0  0  0  0  0  0  0  0  0  0  0
    8.4133   39.8930    9.6609 H   0  0  0  0  0  0  0  0  0  0  0  0
    9.2603   36.3967   10.9165 H   0  0  0  0  0  0  0  0  0  0  0  0
    8.7615   34.3474    9.5815 H   0  0  0  0  0  0  0  0  0  0  0  0
    7.6296   34.5400    7.3577 H   0  0  0  0  0  0  0  0  0  0  0  0
    6.6403   35.8880    5.6133 H   0  0  0  0  0  0  0  0  0  0  0  0
    5.9874   38.1233    4.6888 H   0  0  0  0  0  0  0  0  0  0  0  0
    6.4673   40.2058    5.9992 H   0  0  0  0  0  0  0  0  0  0  0  0
    7.5974   40.0594    8.2241 H   0  0  0  0  0  0  0  0  0  0  0  0
    9.5235   41.3336    8.7070 H   0  0  0  0  0  0  0  0  0  0  0  0
   11.2485   43.0181    8.0147 H   0  0  0  0  0  0  0  0  0  0  0  0
   14.1547   41.0959   10.5963 H   0  0  0  0  0  0  0  0  0  0  0  0
  1  2  1  0
  2  3  1  0
  3  4  1  0
  4  5  2  0
  4  6  1  0
  6  7  1  0
  6  8  1  0
  8  9  1  0
  9 10  2  0
 10 11  1  0
 11 12  2  0
 11 13  1  0
 10 14  1  0
 14 15  1  0
 15 16  1  0
 16 17  2  0
 17 18  1  0
 18 19  2  0
 19 20  1  0
 20 21  2  0
 21 22  1  0
 22 23  2  0
 23 24  1  0
 24 25  2  0
 14 26  1  0
 26 27  2  0
 27 28  1  0
 28 29  2  0
 29 30  1  0
 29 31  1  0
 31 32  2  0
 32  9  1  0
 25 16  1  0
 32 26  1  0
 25 20  1  0
  1 33  1  0
  1 34  1  0
  1 35  1  0
  2 36  1  0
  2 37  1  0
  7 38  1  0
  7 39  1  0
  7 40  1  0
  8 41  1  0
  8 42  1  0
 15 43  1  0
 15 44  1  0
 17 45  1  0
 18 46  1  0
 19 47  1  0
 21 48  1  0
 22 49  1  0
 23 50  1  0
 24 51  1  0
 27 52  1  0
 28 53  1  0
 31 54  1  0
M  CHG  1  13  -1
M  END
>  <meeko>  (310) 
{"free_energy": -6.15, "intermolecular_energy": -8.53, "internal_energy": -2.0, "cluster_size": 81, "cluster_id": 9, "rank_in_cluster": 40}

$$$$

     RDKit          3D

 54 57  0  0  0  0  0  0  0  0999 V2000
    8.8920   38.0680   17.3530 C   0  0  0  0  0  0  0  0  0  0  0  0
    9.0300   36.6090   17.7970 C   0  0  0  0  0  0  0  0  0  0  0  0
    8.2870   35.7810   16.9170 O   0  0  0  0  0  0  0  0  0  0  0  0
    8.4690   35.8770   15.5820 C   0  0  0  0  0  0  0  0  0  0  0  0
    7.7500   36.5550   14.8470 O   0  0  0  0  0  0  0  0  0  0  0  0
    9.5730   35.1140   15.1810 N   0  0  0  0  0  0  0  0  0  0  0  0
   10.4000   34.3730   16.1400 C   0  0  0  0  0  0  0  0  0  0  0  0
    9.9770   35.0420   13.7700 C   0  0  0  0  0  0  0  0  0  0  0  0
    9.9070   36.3860   13.0850 C   0  0  0  0  0  0  0  0  0  0  0  0
   10.4290   37.5990   13.5000 C   0  0  0  0  0  0  0  0  0  0  0  0
   11.2370   37.9230   14.7170 C   0  0  0  0  0  0  0  0  0  0  0  0
   12.0280   37.0620   15.1590 O   0  0  0  0  0  0  0  0  0  0  0  0
   11.1090   39.0260   15.2910 O   0  0  0  0  0  1  0  0  0  0  0  0
   10.0600   38.5940   12.5710 N   0  0  0  0  0  0  0  0  0  0  0  0
   10.3910   40.0220   12.5870 C   0  0  0  0  0  0  0  0  0  0  0  0
   11.0500   40.5460   11.3040 C   0  0  0  0  0  0  0  0  0  0  0  0
   10.5620   41.7100   10.6600 C   0  0  0  0  0  0  0  0  0  0  0  0
   11.1630   42.1940    9.4850 C   0  0  0  0  0  0  0  0  0  0  0  0
   12.2630   41.5190    8.9300 C   0  0  0  0  0  0  0  0  0  0  0  0
   12.7650   40.3590    9.5500 C   0  0  0  0  0  0  0  0  0  0  0  0
   13.8690   39.6950    8.9780 C   0  0  0  0  0  0  0  0  0  0  0  0
   14.3870   38.5340    9.5800 C   0  0  0  0  0  0  0  0  0  0  0  0
   13.8010   38.0350   10.7560 C   0  0  0  0  0  0  0  0  0  0  0  0
   12.6970   38.6940   11.3320 C   0  0  0  0  0  0  0  0  0  0  0  0
   12.1630   39.8640   10.7390 C   0  0  0  0  0  0  0  0  0  0  0  0
    9.3010   38.0190   11.5600 C   0  0  0  0  0  0  0  0  0  0  0  0
    8.6850   38.5690   10.4180 C   0  0  0  0  0  0  0  0  0  0  0  0
    7.9690   37.7390    9.5390 C   0  0  0  0  0  0  0  0  0  0  0  0
    7.8720   36.3630    9.8040 C   0  0  0  0  0  0  0  0  0  0  0  0
    7.1870   35.5570    8.9590 F   0  0  0  0  0  0  0  0  0  0  0  0
    8.4870   35.8200   10.9500 C   0  0  0  0  0  0  0  0  0  0  0  0
    9.2090   36.6320   11.8570 C   0  0  0  0  0  0  0  0  0  0  0  0
    8.8306   38.7167   18.2392 H   0  0  0  0  0  0  0  0  0  0  0  0
    9.7673   38.3522   16.7504 H   0  0  0  0  0  0  0  0  0  0  0  0
    7.9790   38.1831   16.7504 H   0  0  0  0  0  0  0  0  0  0  0  0
   10.0898   36.3154   17.7714 H   0  0  0  0  0  0  0  0  0  0  0  0
    8.6464   36.4969   18.8218 H   0  0  0  0  0  0  0  0  0  0  0  0
   10.1018   34.6402   17.1645 H   0  0  0  0  0  0  0  0  0  0  0  0
   10.2598   33.2927   15.9872 H   0  0  0  0  0  0  0  0  0  0  0  0
   11.4585   34.6306   15.9872 H   0  0  0  0  0  0  0  0  0  0  0  0
   11.0112   34.6711   13.7166 H   0  0  0  0  0  0  0  0  0  0  0  0
    9.2803   34.3646   13.2544 H   0  0  0  0  0  0  0  0  0  0  0  0
    9.4610   40.5867   12.7489 H   0  0  0  0  0  0  0  0  0  0  0  0
   11.1287   40.1591   13.3914 H   0  0  0  0  0  0  0  0  0  0  0  0
    9.6994   42.2432   11.0862 H   0  0  0  0  0  0  0  0  0  0  0  0
   10.7722   43.1008    9.0003 H   0  0  0  0  0  0  0  0  0  0  0  0
   12.7326   41.8973    8.0100 H   0  0  0  0  0  0  0  0  0  0  0  0
   14.3271   40.0861    8.0576 H   0  0  0  0  0  0  0  0  0  0  0  0
   15.2486   38.0179    9.1314 H   0  0  0  0  0  0  0  0  0  0  0  0
   14.2055   37.1274   11.2280 H   0  0  0  0  0  0  0  0  0  0  0  0
   12.2449   38.2955   12.2522 H   0  0  0  0  0  0  0  0  0  0  0  0
    8.7647   39.6472   10.2150 H   0  0  0  0  0  0  0  0  0  0  0  0
    7.4864   38.1650    8.6470 H   0  0  0  0  0  0  0  0  0  0  0  0
    8.4040   34.7404   11.1440 H   0  0  0  0  0  0  0  0  0  0  0  0
  1  2  1  0
  2  3  1  0
  3  4  1  0
  4  5  2  0
  4  6  1  0
  6  7  1  0
  6  8  1  0
  8  9  1  0
  9 10  2  0
 10 11  1  0
 11 12  2  0
 11 13  1  0
 10 14  1  0
 14 15  1  0
 15 16  1  0
 16 17  2  0
 17 18  1  0
 18 19  2  0
 19 20  1  0
 20 21  2  0
 21 22  1  0
 22 23  2  0
 23 24  1  0
 24 25  2  0
 14 26  1  0
 26 27  2  0
 27 28  1  0
 28 29  2  0
 29 30  1  0
 29 31  1  0
 31 32  2  0
 32  9  1  0
 25 16  1  0
 32 26  1  0
 25 20  1  0
  1 33  1  0
  1 34  1  0
  1 35  1  0
  2 36  1  0
  2 37  1  0
  7 38  1  0
  7 39  1  0
  7 40  1  0
  8 41  1  0
  8 42  1  0
 15 43  1  0
 15 44  1  0
 17 45  1  0
 18 46  1  0
 19 47  1  0
 21 48  1  0
 22 49  1  0
 23 50  1  0
 24 51  1  0
 27 52  1  0
 28 53  1  0
 31 54  1  0
M  CHG  1  13  -1
M  END
>  <meeko>  (311) 
{"free_energy": -5.64, "intermolecular_energy": -8.02, "internal_energy": -2.29, "cluster_size": 251, "cluster_id": 26, "rank_in_cluster": 135}

$$$$

     RDKit          3D

 54 57  0  0  0  0  0  0  0  0999 V2000
    7.7200   35.3700   18.0350 C   0  0  0  0  0  0  0  0  0  0  0  0
    8.9890   35.0760   17.2320 C   0  0  0  0  0  0  0  0  0  0  0  0
   10.0070   35.9860   17.6170 O   0  0  0  0  0  0  0  0  0  0  0  0
   10.1540   37.1550   16.9570 C   0  0  0  0  0  0  0  0  0  0  0  0
    9.3480   38.0840   17.0360 O   0  0  0  0  0  0  0  0  0  0  0  0
   11.3320   37.1460   16.1990 N   0  0  0  0  0  0  0  0  0  0  0  0
   12.3060   36.0530   16.2840 C   0  0  0  0  0  0  0  0  0  0  0  0
   11.6640   38.2560   15.2950 C   0  0  0  0  0  0  0  0  0  0  0  0
   11.3460   37.9350   13.8540 C   0  0  0  0  0  0  0  0  0  0  0  0
   10.3530   37.1150   13.3470 C   0  0  0  0  0  0  0  0  0  0  0  0
    9.2950   36.3410   14.0680 C   0  0  0  0  0  0  0  0  0  0  0  0
    8.2420   36.9290   14.4000 O   0  0  0  0  0  0  0  0  0  0  0  0
    9.4680   35.1360   14.3510 O   0  0  0  0  0  1  0  0  0  0  0  0
   10.4760   37.0670   11.9420 N   0  0  0  0  0  0  0  0  0  0  0  0
    9.6450   36.3380   10.9800 C   0  0  0  0  0  0  0  0  0  0  0  0
    8.9330   37.2190    9.9450 C   0  0  0  0  0  0  0  0  0  0  0  0
    8.8510   38.6230   10.1210 C   0  0  0  0  0  0  0  0  0  0  0  0
    8.2000   39.4350    9.1760 C   0  0  0  0  0  0  0  0  0  0  0  0
    7.6150   38.8560    8.0380 C   0  0  0  0  0  0  0  0  0  0  0  0
    7.6810   37.4640    7.8420 C   0  0  0  0  0  0  0  0  0  0  0  0
    7.0880   36.9000    6.6930 C   0  0  0  0  0  0  0  0  0  0  0  0
    7.1410   35.5110    6.4770 C   0  0  0  0  0  0  0  0  0  0  0  0
    7.7890   34.6830    7.4100 C   0  0  0  0  0  0  0  0  0  0  0  0
    8.3830   35.2390    8.5590 C   0  0  0  0  0  0  0  0  0  0  0  0
    8.3390   36.6360    8.7930 C   0  0  0  0  0  0  0  0  0  0  0  0
   11.5490   37.8560   11.5490 C   0  0  0  0  0  0  0  0  0  0  0  0
   12.0970   38.1330   10.2800 C   0  0  0  0  0  0  0  0  0  0  0  0
   13.2020   38.9930   10.1660 C   0  0  0  0  0  0  0  0  0  0  0  0
   13.7540   39.5740   11.3210 C   0  0  0  0  0  0  0  0  0  0  0  0
   14.8170   40.4070   11.2180 F   0  0  0  0  0  0  0  0  0  0  0  0
   13.2040   39.2900   12.5860 C   0  0  0  0  0  0  0  0  0  0  0  0
   12.0950   38.4230   12.7330 C   0  0  0  0  0  0  0  0  0  0  0  0
    7.9461   35.3176   19.1102 H   0  0  0  0  0  0  0  0  0  0  0  0
    7.3535   36.3768   17.7860 H   0  0  0  0  0  0  0  0  0  0  0  0
    6.9481   34.6269   17.7860 H   0  0  0  0  0  0  0  0  0  0  0  0
    9.3209   34.0466   17.4325 H   0  0  0  0  0  0  0  0  0  0  0  0
    8.7804   35.1882   16.1578 H   0  0  0  0  0  0  0  0  0  0  0  0
   12.5095   35.8246   17.3406 H   0  0  0  0  0  0  0  0  0  0  0  0
   11.8990   35.1597   15.7876 H   0  0  0  0  0  0  0  0  0  0  0  0
   13.2401   36.3548   15.7876 H   0  0  0  0  0  0  0  0  0  0  0  0
   11.0863   39.1424   15.5959 H   0  0  0  0  0  0  0  0  0  0  0  0
   12.7463   38.4384   15.3687 H   0  0  0  0  0  0  0  0  0  0  0  0
   10.2895   35.6288   10.4399 H   0  0  0  0  0  0  0  0  0  0  0  0
    8.8532   35.8473   11.5651 H   0  0  0  0  0  0  0  0  0  0  0  0
    9.3038   39.0845   11.0109 H   0  0  0  0  0  0  0  0  0  0  0  0
    8.1488   40.5233    9.3278 H   0  0  0  0  0  0  0  0  0  0  0  0
    7.1047   39.4913    7.2991 H   0  0  0  0  0  0  0  0  0  0  0  0
    6.5821   37.5490    5.9630 H   0  0  0  0  0  0  0  0  0  0  0  0
    6.6767   35.0740    5.5806 H   0  0  0  0  0  0  0  0  0  0  0  0
    7.8321   33.5968    7.2418 H   0  0  0  0  0  0  0  0  0  0  0  0
    8.8868   34.5818    9.2831 H   0  0  0  0  0  0  0  0  0  0  0  0
   11.6598   37.6762    9.3799 H   0  0  0  0  0  0  0  0  0  0  0  0
   13.6332   39.2107    9.1777 H   0  0  0  0  0  0  0  0  0  0  0  0
   13.6465   39.7527   13.4805 H   0  0  0  0  0  0  0  0  0  0  0  0
  1  2  1  0
  2  3  1  0
  3  4  1  0
  4  5  2  0
  4  6  1  0
  6  7  1  0
  6  8  1  0
  8  9  1  0
  9 10  2  0
 10 11  1  0
 11 12  2  0
 11 13  1  0
 10 14  1  0
 14 15  1  0
 15 16  1  0
 16 17  2  0
 17 18  1  0
 18 19  2  0
 19 20  1  0
 20 21  2  0
 21 22  1  0
 22 23  2  0
 23 24  1  0
 24 25  2  0
 14 26  1  0
 26 27  2  0
 27 28  1  0
 28 29  2  0
 29 30  1  0
 29 31  1  0
 31 32  2  0
 32  9  1  0
 25 16  1  0
 32 26  1  0
 25 20  1  0
  1 33  1  0
  1 34  1  0
  1 35  1  0
  2 36  1  0
  2 37  1  0
  7 38  1  0
  7 39  1  0
  7 40  1  0
  8 41  1  0
  8 42  1  0
 15 43  1  0
 15 44  1  0
 17 45  1  0
 18 46  1  0
 19 47  1  0
 21 48  1  0
 22 49  1  0
 23 50  1  0
 24 51  1  0
 27 52  1  0
 28 53  1  0
 31 54  1  0
M  CHG  1  13  -1
M  END
>  <meeko>  (312) 
{"free_energy": -7.32, "intermolecular_energy": -9.71, "internal_energy": -1.77, "cluster_size": 263, "cluster_id": 1, "rank_in_cluster": 60}

$$$$

     RDKit          3D

 54 57  0  0  0  0  0  0  0  0999 V2000
    0.2330   35.6700   20.3480 C   0  0  0  0  0  0  0  0  0  0  0  0
    0.9840   37.0030   20.3030 C   0  0  0  0  0  0  0  0  0  0  0  0
    1.1670   37.3900   18.9500 O   0  0  0  0  0  0  0  0  0  0  0  0
    2.2170   38.1660   18.6050 C   0  0  0  0  0  0  0  0  0  0  0  0
    2.1550   39.3930   18.5240 O   0  0  0  0  0  0  0  0  0  0  0  0
    3.3530   37.3800   18.3690 N   0  0  0  0  0  0  0  0  0  0  0  0
    3.6540   36.8220   17.0460 C   0  0  0  0  0  0  0  0  0  0  0  0
    4.2890   37.0490   19.4520 C   0  0  0  0  0  0  0  0  0  0  0  0
    5.7170   37.3900   19.0980 C   0  0  0  0  0  0  0  0  0  0  0  0
    6.6910   36.5760   18.5460 C   0  0  0  0  0  0  0  0  0  0  0  0
    6.6060   35.1470   18.1100 C   0  0  0  0  0  0  0  0  0  0  0  0
    7.5020   34.3550   18.4730 O   0  0  0  0  0  0  0  0  0  0  0  0
    5.6670   34.7590   17.3820 O   0  0  0  0  0  1  0  0  0  0  0  0
    7.8940   37.3080   18.4510 N   0  0  0  0  0  0  0  0  0  0  0  0
    9.1880   36.8680   17.9230 C   0  0  0  0  0  0  0  0  0  0  0  0
    9.1780   36.4670   16.4410 C   0  0  0  0  0  0  0  0  0  0  0  0
    8.8650   35.1410   16.0500 C   0  0  0  0  0  0  0  0  0  0  0  0
    8.8540   34.7700   14.6950 C   0  0  0  0  0  0  0  0  0  0  0  0
    9.1580   35.7180   13.7040 C   0  0  0  0  0  0  0  0  0  0  0  0
    9.4730   37.0410   14.0680 C   0  0  0  0  0  0  0  0  0  0  0  0
    9.7770   37.9790   13.0600 C   0  0  0  0  0  0  0  0  0  0  0  0
   10.0950   39.3060   13.3990 C   0  0  0  0  0  0  0  0  0  0  0  0
   10.1100   39.6980   14.7500 C   0  0  0  0  0  0  0  0  0  0  0  0
    9.8090   38.7650   15.7610 C   0  0  0  0  0  0  0  0  0  0  0  0
    9.4860   37.4240   15.4360 C   0  0  0  0  0  0  0  0  0  0  0  0
    7.6900   38.5910   18.9430 C   0  0  0  0  0  0  0  0  0  0  0  0
    8.5580   39.6930   19.0840 C   0  0  0  0  0  0  0  0  0  0  0  0
    8.0770   40.9010   19.6160 C   0  0  0  0  0  0  0  0  0  0  0  0
    6.7300   41.0030   20.0030 C   0  0  0  0  0  0  0  0  0  0  0  0
    6.2590   42.1660   20.5130 F   0  0  0  0  0  0  0  0  0  0  0  0
    5.8690   39.8970   19.8630 C   0  0  0  0  0  0  0  0  0  0  0  0
    6.3270   38.6650   19.3360 C   0  0  0  0  0  0  0  0  0  0  0  0
    0.0681   35.3772   21.3954 H   0  0  0  0  0  0  0  0  0  0  0  0
   -0.7369   35.7783   19.8405 H   0  0  0  0  0  0  0  0  0  0  0  0
    0.8281   34.8965   19.8405 H   0  0  0  0  0  0  0  0  0  0  0  0
    0.4002   37.7721   20.8299 H   0  0  0  0  0  0  0  0  0  0  0  0
    1.9634   36.8921   20.7914 H   0  0  0  0  0  0  0  0  0  0  0  0
    4.1732   35.8594   17.1635 H   0  0  0  0  0  0  0  0  0  0  0  0
    2.7167   36.6677   16.4912 H   0  0  0  0  0  0  0  0  0  0  0  0
    4.2977   37.5205   16.4912 H   0  0  0  0  0  0  0  0  0  0  0  0
    4.0030   37.6133   20.3519 H   0  0  0  0  0  0  0  0  0  0  0  0
    4.2345   35.9640   19.6247 H   0  0  0  0  0  0  0  0  0  0  0  0
    9.9066   37.6911   18.0496 H   0  0  0  0  0  0  0  0  0  0  0  0
    9.4597   35.9629   18.4860 H   0  0  0  0  0  0  0  0  0  0  0  0
    8.6272   34.3912   16.8190 H   0  0  0  0  0  0  0  0  0  0  0  0
    8.6072   33.7366   14.4100 H   0  0  0  0  0  0  0  0  0  0  0  0
    9.1499   35.4266   12.6433 H   0  0  0  0  0  0  0  0  0  0  0  0
    9.7653   37.6713   12.0040 H   0  0  0  0  0  0  0  0  0  0  0  0
   10.3313   40.0354   12.6103 H   0  0  0  0  0  0  0  0  0  0  0  0
   10.3575   40.7359   15.0174 H   0  0  0  0  0  0  0  0  0  0  0  0
    9.8248   39.0806   16.8146 H   0  0  0  0  0  0  0  0  0  0  0  0
    9.6110   39.6070   18.7777 H   0  0  0  0  0  0  0  0  0  0  0  0
    8.7514   41.7626   19.7290 H   0  0  0  0  0  0  0  0  0  0  0  0
    4.8170   39.9925   20.1700 H   0  0  0  0  0  0  0  0  0  0  0  0
  1  2  1  0
  2  3  1  0
  3  4  1  0
  4  5  2  0
  4  6  1  0
  6  7  1  0
  6  8  1  0
  8  9  1  0
  9 10  2  0
 10 11  1  0
 11 12  2  0
 11 13  1  0
 10 14  1  0
 14 15  1  0
 15 16  1  0
 16 17  2  0
 17 18  1  0
 18 19  2  0
 19 20  1  0
 20 21  2  0
 21 22  1  0
 22 23  2  0
 23 24  1  0
 24 25  2  0
 14 26  1  0
 26 27  2  0
 27 28  1  0
 28 29  2  0
 29 30  1  0
 29 31  1  0
 31 32  2  0
 32  9  1  0
 25 16  1  0
 32 26  1  0
 25 20  1  0
  1 33  1  0
  1 34  1  0
  1 35  1  0
  2 36  1  0
  2 37  1  0
  7 38  1  0
  7 39  1  0
  7 40  1  0
  8 41  1  0
  8 42  1  0
 15 43  1  0
 15 44  1  0
 17 45  1  0
 18 46  1  0
 19 47  1  0
 21 48  1  0
 22 49  1  0
 23 50  1  0
 24 51  1  0
 27 52  1  0
 28 53  1  0
 31 54  1  0
M  CHG  1  13  -1
M  END
>  <meeko>  (313) 
{"free_energy": -5.71, "intermolecular_energy": -8.1, "internal_energy": -1.78, "cluster_size": 16, "cluster_id": 88, "rank_in_cluster": 4}

$$$$

     RDKit          3D

 54 57  0  0  0  0  0  0  0  0999 V2000
    6.8770   42.1890   19.6970 C   0  0  0  0  0  0  0  0  0  0  0  0
    7.9230   43.0100   18.9380 C   0  0  0  0  0  0  0  0  0  0  0  0
    8.2960   42.3140   17.7590 O   0  0  0  0  0  0  0  0  0  0  0  0
    9.4720   41.6530   17.7080 C   0  0  0  0  0  0  0  0  0  0  0  0
   10.1550   41.4060   18.7030 O   0  0  0  0  0  0  0  0  0  0  0  0
    9.7790   41.2980   16.3880 N   0  0  0  0  0  0  0  0  0  0  0  0
    9.2200   42.0160   15.2370 C   0  0  0  0  0  0  0  0  0  0  0  0
   10.6600   40.1610   16.0900 C   0  0  0  0  0  0  0  0  0  0  0  0
    9.9200   38.8450   16.1010 C   0  0  0  0  0  0  0  0  0  0  0  0
    9.3040   38.2060   17.1630 C   0  0  0  0  0  0  0  0  0  0  0  0
    9.1630   38.6430   18.5870 C   0  0  0  0  0  0  0  0  0  0  0  0
   10.0290   38.2850   19.4140 O   0  0  0  0  0  0  0  0  0  0  0  0
    8.1860   39.3360   18.9460 O   0  0  0  0  0  1  0  0  0  0  0  0
    8.7960   36.9680   16.7150 N   0  0  0  0  0  0  0  0  0  0  0  0
    8.0600   35.9560   17.4790 C   0  0  0  0  0  0  0  0  0  0  0  0
    7.1350   36.5160   18.5680 C   0  0  0  0  0  0  0  0  0  0  0  0
    7.5670   36.5970   19.9160 C   0  0  0  0  0  0  0  0  0  0  0  0
    6.7230   37.1090   20.9160 C   0  0  0  0  0  0  0  0  0  0  0  0
    5.4310   37.5480   20.5880 C   0  0  0  0  0  0  0  0  0  0  0  0
    4.9780   37.4770   19.2570 C   0  0  0  0  0  0  0  0  0  0  0  0
    3.6770   37.9220   18.9460 C   0  0  0  0  0  0  0  0  0  0  0  0
    3.2030   37.8590   17.6230 C   0  0  0  0  0  0  0  0  0  0  0  0
    4.0330   37.3510   16.6070 C   0  0  0  0  0  0  0  0  0  0  0  0
    5.3330   36.9040   16.9110 C   0  0  0  0  0  0  0  0  0  0  0  0
    5.8260   36.9600   18.2390 C   0  0  0  0  0  0  0  0  0  0  0  0
    9.0870   36.8140   15.3660 C   0  0  0  0  0  0  0  0  0  0  0  0
    8.8180   35.7680   14.4600 C   0  0  0  0  0  0  0  0  0  0  0  0
    9.2260   35.8790   13.1200 C   0  0  0  0  0  0  0  0  0  0  0  0
    9.9000   37.0360   12.6910 C   0  0  0  0  0  0  0  0  0  0  0  0
   10.2920   37.1510   11.4000 F   0  0  0  0  0  0  0  0  0  0  0  0
   10.1680   38.0750   13.6030 C   0  0  0  0  0  0  0  0  0  0  0  0
    9.7750   37.9890   14.9600 C   0  0  0  0  0  0  0  0  0  0  0  0
    7.0309   42.3098   20.7795 H   0  0  0  0  0  0  0  0  0  0  0  0
    5.8698   42.5402   19.4284 H   0  0  0  0  0  0  0  0  0  0  0  0
    6.9788   41.1272   19.4284 H   0  0  0  0  0  0  0  0  0  0  0  0
    7.4985   43.9885   18.6690 H   0  0  0  0  0  0  0  0  0  0  0  0
    8.8077   43.1605   19.5741 H   0  0  0  0  0  0  0  0  0  0  0  0
    8.5805   42.8374   15.5925 H   0  0  0  0  0  0  0  0  0  0  0  0
   10.0389   42.4262   14.6278 H   0  0  0  0  0  0  0  0  0  0  0  0
    8.6215   41.3227   14.6278 H   0  0  0  0  0  0  0  0  0  0  0  0
   11.1041   40.3089   15.0946 H   0  0  0  0  0  0  0  0  0  0  0  0
   11.4324   40.1195   16.8721 H   0  0  0  0  0  0  0  0  0  0  0  0
    7.4463   35.3753   16.7746 H   0  0  0  0  0  0  0  0  0  0  0  0
    8.8170   35.3500   17.9983 H   0  0  0  0  0  0  0  0  0  0  0  0
    8.5775   36.2541   20.1829 H   0  0  0  0  0  0  0  0  0  0  0  0
    7.0752   37.1658   21.9566 H   0  0  0  0  0  0  0  0  0  0  0  0
    4.7713   37.9481   21.3721 H   0  0  0  0  0  0  0  0  0  0  0  0
    3.0297   38.3202   19.7413 H   0  0  0  0  0  0  0  0  0  0  0  0
    2.1869   38.2058   17.3837 H   0  0  0  0  0  0  0  0  0  0  0  0
    3.6650   37.3029   15.5715 H   0  0  0  0  0  0  0  0  0  0  0  0
    5.9731   36.5070   16.1094 H   0  0  0  0  0  0  0  0  0  0  0  0
    8.2893   34.8659   14.8017 H   0  0  0  0  0  0  0  0  0  0  0  0
    9.0191   35.0647   12.4100 H   0  0  0  0  0  0  0  0  0  0  0  0
   10.6952   38.9746   13.2525 H   0  0  0  0  0  0  0  0  0  0  0  0
  1  2  1  0
  2  3  1  0
  3  4  1  0
  4  5  2  0
  4  6  1  0
  6  7  1  0
  6  8  1  0
  8  9  1  0
  9 10  2  0
 10 11  1  0
 11 12  2  0
 11 13  1  0
 10 14  1  0
 14 15  1  0
 15 16  1  0
 16 17  2  0
 17 18  1  0
 18 19  2  0
 19 20  1  0
 20 21  2  0
 21 22  1  0
 22 23  2  0
 23 24  1  0
 24 25  2  0
 14 26  1  0
 26 27  2  0
 27 28  1  0
 28 29  2  0
 29 30  1  0
 29 31  1  0
 31 32  2  0
 32  9  1  0
 25 16  1  0
 32 26  1  0
 25 20  1  0
  1 33  1  0
  1 34  1  0
  1 35  1  0
  2 36  1  0
  2 37  1  0
  7 38  1  0
  7 39  1  0
  7 40  1  0
  8 41  1  0
  8 42  1  0
 15 43  1  0
 15 44  1  0
 17 45  1  0
 18 46  1  0
 19 47  1  0
 21 48  1  0
 22 49  1  0
 23 50  1  0
 24 51  1  0
 27 52  1  0
 28 53  1  0
 31 54  1  0
M  CHG  1  13  -1
M  END
>  <meeko>  (314) 
{"free_energy": -5.48, "intermolecular_energy": -7.87, "internal_energy": -1.71, "cluster_size": 26, "cluster_id": 77, "rank_in_cluster": 7}

$$$$

     RDKit          3D

 54 57  0  0  0  0  0  0  0  0999 V2000
   15.7020   35.1050   10.5160 C   0  0  0  0  0  0  0  0  0  0  0  0
   14.9480   36.2480    9.8310 C   0  0  0  0  0  0  0  0  0  0  0  0
   15.6540   37.4610   10.0350 O   0  0  0  0  0  0  0  0  0  0  0  0
   15.1500   38.6240    9.5690 C   0  0  0  0  0  0  0  0  0  0  0  0
   15.3440   39.0370    8.4250 O   0  0  0  0  0  0  0  0  0  0  0  0
   14.3910   39.2610   10.5590 N   0  0  0  0  0  0  0  0  0  0  0  0
   14.2550   38.7120   11.9130 C   0  0  0  0  0  0  0  0  0  0  0  0
   13.6630   40.5060   10.2770 C   0  0  0  0  0  0  0  0  0  0  0  0
   12.2220   40.4400   10.7260 C   0  0  0  0  0  0  0  0  0  0  0  0
   11.3040   39.4200   10.5460 C   0  0  0  0  0  0  0  0  0  0  0  0
   11.4770   38.0840    9.8950 C   0  0  0  0  0  0  0  0  0  0  0  0
   12.1940   37.2300   10.4590 O   0  0  0  0  0  0  0  0  0  0  0  0
   10.9320   37.8360    8.7970 O   0  0  0  0  0  1  0  0  0  0  0  0
   10.0620   39.8280   11.0780 N   0  0  0  0  0  0  0  0  0  0  0  0
    8.8020   39.0800   11.1250 C   0  0  0  0  0  0  0  0  0  0  0  0
    8.2710   38.6240    9.7600 C   0  0  0  0  0  0  0  0  0  0  0  0
    8.0720   39.5560    8.7100 C   0  0  0  0  0  0  0  0  0  0  0  0
    7.5860   39.1420    7.4580 C   0  0  0  0  0  0  0  0  0  0  0  0
    7.2870   37.7890    7.2330 C   0  0  0  0  0  0  0  0  0  0  0  0
    7.4740   36.8450    8.2600 C   0  0  0  0  0  0  0  0  0  0  0  0
    7.1690   35.4900    8.0160 C   0  0  0  0  0  0  0  0  0  0  0  0
    7.3480   34.5290    9.0270 C   0  0  0  0  0  0  0  0  0  0  0  0
    7.8340   34.9230   10.2870 C   0  0  0  0  0  0  0  0  0  0  0  0
    8.1410   36.2740   10.5370 C   0  0  0  0  0  0  0  0  0  0  0  0
    7.9670   37.2550    9.5290 C   0  0  0  0  0  0  0  0  0  0  0  0
   10.1850   41.1100   11.5970 C   0  0  0  0  0  0  0  0  0  0  0  0
    9.2520   41.9670   12.2170 C   0  0  0  0  0  0  0  0  0  0  0  0
    9.6560   43.2360   12.6650 C   0  0  0  0  0  0  0  0  0  0  0  0
   10.9900   43.6430   12.4930 C   0  0  0  0  0  0  0  0  0  0  0  0
   11.3860   44.8640   12.9260 F   0  0  0  0  0  0  0  0  0  0  0  0
   11.9150   42.7840   11.8690 C   0  0  0  0  0  0  0  0  0  0  0  0
   11.5360   41.5030   11.4010 C   0  0  0  0  0  0  0  0  0  0  0  0
   15.6271   35.2186   11.6076 H   0  0  0  0  0  0  0  0  0  0  0  0
   15.2606   34.1431   10.2163 H   0  0  0  0  0  0  0  0  0  0  0  0
   16.7600   35.1322   10.2163 H   0  0  0  0  0  0  0  0  0  0  0  0
   14.8712   36.0439    8.7528 H   0  0  0  0  0  0  0  0  0  0  0  0
   13.9377   36.3323   10.2579 H   0  0  0  0  0  0  0  0  0  0  0  0
   14.4511   39.5037   12.6511 H   0  0  0  0  0  0  0  0  0  0  0  0
   13.2342   38.3263   12.0515 H   0  0  0  0  0  0  0  0  0  0  0  0
   14.9778   37.8944   12.0515 H   0  0  0  0  0  0  0  0  0  0  0  0
   14.1603   41.3339   10.8035 H   0  0  0  0  0  0  0  0  0  0  0  0
   13.6701   40.6615    9.1881 H   0  0  0  0  0  0  0  0  0  0  0  0
    8.9581   38.1863   11.7470 H   0  0  0  0  0  0  0  0  0  0  0  0
    8.0489   39.7692   11.5347 H   0  0  0  0  0  0  0  0  0  0  0  0
    8.3014   40.6186    8.8779 H   0  0  0  0  0  0  0  0  0  0  0  0
    7.4398   39.8784    6.6541 H   0  0  0  0  0  0  0  0  0  0  0  0
    6.9061   37.4662    6.2528 H   0  0  0  0  0  0  0  0  0  0  0  0
    6.7893   35.1833    7.0302 H   0  0  0  0  0  0  0  0  0  0  0  0
    7.1088   33.4729    8.8333 H   0  0  0  0  0  0  0  0  0  0  0  0
    7.9746   34.1731   11.0794 H   0  0  0  0  0  0  0  0  0  0  0  0
    8.5202   36.5716   11.5258 H   0  0  0  0  0  0  0  0  0  0  0  0
    8.2094   41.6423   12.3496 H   0  0  0  0  0  0  0  0  0  0  0  0
    8.9313   43.9078   13.1482 H   0  0  0  0  0  0  0  0  0  0  0  0
   12.9560   43.1161   11.7423 H   0  0  0  0  0  0  0  0  0  0  0  0
  1  2  1  0
  2  3  1  0
  3  4  1  0
  4  5  2  0
  4  6  1  0
  6  7  1  0
  6  8  1  0
  8  9  1  0
  9 10  2  0
 10 11  1  0
 11 12  2  0
 11 13  1  0
 10 14  1  0
 14 15  1  0
 15 16  1  0
 16 17  2  0
 17 18  1  0
 18 19  2  0
 19 20  1  0
 20 21  2  0
 21 22  1  0
 22 23  2  0
 23 24  1  0
 24 25  2  0
 14 26  1  0
 26 27  2  0
 27 28  1  0
 28 29  2  0
 29 30  1  0
 29 31  1  0
 31 32  2  0
 32  9  1  0
 25 16  1  0
 32 26  1  0
 25 20  1  0
  1 33  1  0
  1 34  1  0
  1 35  1  0
  2 36  1  0
  2 37  1  0
  7 38  1  0
  7 39  1  0
  7 40  1  0
  8 41  1  0
  8 42  1  0
 15 43  1  0
 15 44  1  0
 17 45  1  0
 18 46  1  0
 19 47  1  0
 21 48  1  0
 22 49  1  0
 23 50  1  0
 24 51  1  0
 27 52  1  0
 28 53  1  0
 31 54  1  0
M  CHG  1  13  -1
M  END
>  <meeko>  (315) 
{"free_energy": -6.82, "intermolecular_energy": -9.21, "internal_energy": -1.91, "cluster_size": 417, "cluster_id": 2, "rank_in_cluster": 170}

$$$$

     RDKit          3D

 54 57  0  0  0  0  0  0  0  0999 V2000
   12.2210   39.2590    9.4790 C   0  0  0  0  0  0  0  0  0  0  0  0
   12.8430   40.5430   10.0340 C   0  0  0  0  0  0  0  0  0  0  0  0
   11.9530   41.6260    9.8120 O   0  0  0  0  0  0  0  0  0  0  0  0
   10.6540   41.5160   10.1630 C   0  0  0  0  0  0  0  0  0  0  0  0
    9.7890   41.0470    9.4210 O   0  0  0  0  0  0  0  0  0  0  0  0
   10.4530   41.9980   11.4630 N   0  0  0  0  0  0  0  0  0  0  0  0
   11.3720   42.9550   12.0900 C   0  0  0  0  0  0  0  0  0  0  0  0
    9.3190   41.5430   12.2780 C   0  0  0  0  0  0  0  0  0  0  0  0
    9.6420   40.2900   13.0570 C   0  0  0  0  0  0  0  0  0  0  0  0
    9.9770   40.1630   14.3940 C   0  0  0  0  0  0  0  0  0  0  0  0
   10.0820   41.2130   15.4550 C   0  0  0  0  0  0  0  0  0  0  0  0
    9.0350   41.7520   15.8720 O   0  0  0  0  0  0  0  0  0  0  0  0
   11.1990   41.5580   15.9000 O   0  0  0  0  0  1  0  0  0  0  0  0
   10.2560   38.8070   14.6660 N   0  0  0  0  0  0  0  0  0  0  0  0
   10.6420   38.1940   15.9400 C   0  0  0  0  0  0  0  0  0  0  0  0
    9.5130   38.0890   16.9740 C   0  0  0  0  0  0  0  0  0  0  0  0
    9.2820   39.1310   17.9060 C   0  0  0  0  0  0  0  0  0  0  0  0
    8.2490   39.0390   18.8540 C   0  0  0  0  0  0  0  0  0  0  0  0
    7.4280   37.9000   18.8900 C   0  0  0  0  0  0  0  0  0  0  0  0
    7.6390   36.8500   17.9760 C   0  0  0  0  0  0  0  0  0  0  0  0
    6.8050   35.7140   18.0260 C   0  0  0  0  0  0  0  0  0  0  0  0
    6.9970   34.6530   17.1240 C   0  0  0  0  0  0  0  0  0  0  0  0
    8.0250   34.7270   16.1660 C   0  0  0  0  0  0  0  0  0  0  0  0
    8.8610   35.8580   16.1110 C   0  0  0  0  0  0  0  0  0  0  0  0
    8.6810   36.9360   17.0130 C   0  0  0  0  0  0  0  0  0  0  0  0
   10.1000   38.0650   13.5020 C   0  0  0  0  0  0  0  0  0  0  0  0
   10.2690   36.6910   13.2330 C   0  0  0  0  0  0  0  0  0  0  0  0
   10.0310   36.1960   11.9400 C   0  0  0  0  0  0  0  0  0  0  0  0
    9.6220   37.0740   10.9220 C   0  0  0  0  0  0  0  0  0  0  0  0
    9.3860   36.6020    9.6750 F   0  0  0  0  0  0  0  0  0  0  0  0
    9.4580   38.4460   11.1970 C   0  0  0  0  0  0  0  0  0  0  0  0
    9.6980   38.9760   12.4880 C   0  0  0  0  0  0  0  0  0  0  0  0
   11.9081   38.6131   10.3126 H   0  0  0  0  0  0  0  0  0  0  0  0
   11.3457   39.5122    8.8628 H   0  0  0  0  0  0  0  0  0  0  0  0
   12.9623   38.7291    8.8628 H   0  0  0  0  0  0  0  0  0  0  0  0
   13.0215   40.4287   11.1134 H   0  0  0  0  0  0  0  0  0  0  0  0
   13.7989   40.7400    9.5267 H   0  0  0  0  0  0  0  0  0  0  0  0
   11.2947   42.8745   13.1843 H   0  0  0  0  0  0  0  0  0  0  0  0
   12.4029   42.7318   11.7778 H   0  0  0  0  0  0  0  0  0  0  0  0
   11.1073   43.9760   11.7778 H   0  0  0  0  0  0  0  0  0  0  0  0
    9.0492   42.3405   12.9860 H   0  0  0  0  0  0  0  0  0  0  0  0
    8.4858   41.3122   11.5979 H   0  0  0  0  0  0  0  0  0  0  0  0
   11.0113   37.1788   15.7328 H   0  0  0  0  0  0  0  0  0  0  0  0
   11.4045   38.8527   16.3812 H   0  0  0  0  0  0  0  0  0  0  0  0
    9.9214   40.0259   17.8871 H   0  0  0  0  0  0  0  0  0  0  0  0
    8.0833   39.8591   19.5681 H   0  0  0  0  0  0  0  0  0  0  0  0
    6.6197   37.8282   19.6327 H   0  0  0  0  0  0  0  0  0  0  0  0
    6.0006   35.6578   18.7742 H   0  0  0  0  0  0  0  0  0  0  0  0
    6.3456   33.7676   17.1670 H   0  0  0  0  0  0  0  0  0  0  0  0
    8.1757   33.8986   15.4581 H   0  0  0  0  0  0  0  0  0  0  0  0
    9.6629   35.9056   15.3596 H   0  0  0  0  0  0  0  0  0  0  0  0
   10.5867   36.0079   14.0345 H   0  0  0  0  0  0  0  0  0  0  0  0
   10.1643   35.1254   11.7253 H   0  0  0  0  0  0  0  0  0  0  0  0
    9.1361   39.1210   10.3903 H   0  0  0  0  0  0  0  0  0  0  0  0
  1  2  1  0
  2  3  1  0
  3  4  1  0
  4  5  2  0
  4  6  1  0
  6  7  1  0
  6  8  1  0
  8  9  1  0
  9 10  2  0
 10 11  1  0
 11 12  2  0
 11 13  1  0
 10 14  1  0
 14 15  1  0
 15 16  1  0
 16 17  2  0
 17 18  1  0
 18 19  2  0
 19 20  1  0
 20 21  2  0
 21 22  1  0
 22 23  2  0
 23 24  1  0
 24 25  2  0
 14 26  1  0
 26 27  2  0
 27 28  1  0
 28 29  2  0
 29 30  1  0
 29 31  1  0
 31 32  2  0
 32  9  1  0
 25 16  1  0
 32 26  1  0
 25 20  1  0
  1 33  1  0
  1 34  1  0
  1 35  1  0
  2 36  1  0
  2 37  1  0
  7 38  1  0
  7 39  1  0
  7 40  1  0
  8 41  1  0
  8 42  1  0
 15 43  1  0
 15 44  1  0
 17 45  1  0
 18 46  1  0
 19 47  1  0
 21 48  1  0
 22 49  1  0
 23 50  1  0
 24 51  1  0
 27 52  1  0
 28 53  1  0
 31 54  1  0
M  CHG  1  13  -1
M  END
>  <meeko>  (316) 
{"free_energy": -5.53, "intermolecular_energy": -7.91, "internal_energy": -2.27, "cluster_size": 121, "cluster_id": 34, "rank_in_cluster": 42}

$$$$

     RDKit          3D

 54 57  0  0  0  0  0  0  0  0999 V2000
   10.6630   39.5800   18.6110 C   0  0  0  0  0  0  0  0  0  0  0  0
   10.4720   40.9760   18.0120 C   0  0  0  0  0  0  0  0  0  0  0  0
    9.2920   40.9890   17.2250 O   0  0  0  0  0  0  0  0  0  0  0  0
    9.2200   41.7720   16.1280 C   0  0  0  0  0  0  0  0  0  0  0  0
    8.6230   42.8500   16.1020 O   0  0  0  0  0  0  0  0  0  0  0  0
    9.9140   41.1880   15.0600 N   0  0  0  0  0  0  0  0  0  0  0  0
   10.0260   39.7330   14.9050 C   0  0  0  0  0  0  0  0  0  0  0  0
   10.5930   42.0110   14.0510 C   0  0  0  0  0  0  0  0  0  0  0  0
   11.1790   41.1800   12.9340 C   0  0  0  0  0  0  0  0  0  0  0  0
   10.5750   40.7470   11.7670 C   0  0  0  0  0  0  0  0  0  0  0  0
    9.1910   41.0010   11.2580 C   0  0  0  0  0  0  0  0  0  0  0  0
    8.8450   42.1790   11.0230 O   0  0  0  0  0  0  0  0  0  0  0  0
    8.3900   40.0550   11.0910 O   0  0  0  0  0  1  0  0  0  0  0  0
   11.4890   39.9440   11.0530 N   0  0  0  0  0  0  0  0  0  0  0  0
   11.3000   39.2760    9.7620 C   0  0  0  0  0  0  0  0  0  0  0  0
   10.5320   37.9500    9.8280 C   0  0  0  0  0  0  0  0  0  0  0  0
   11.0470   36.8480   10.5560 C   0  0  0  0  0  0  0  0  0  0  0  0
   10.3470   35.6310   10.6200 C   0  0  0  0  0  0  0  0  0  0  0  0
    9.1190   35.4920    9.9540 C   0  0  0  0  0  0  0  0  0  0  0  0
    8.5870   36.5710    9.2230 C   0  0  0  0  0  0  0  0  0  0  0  0
    7.3520   36.4130    8.5600 C   0  0  0  0  0  0  0  0  0  0  0  0
    6.8020   37.4770    7.8230 C   0  0  0  0  0  0  0  0  0  0  0  0
    7.4870   38.7030    7.7480 C   0  0  0  0  0  0  0  0  0  0  0  0
    8.7200   38.8670    8.4070 C   0  0  0  0  0  0  0  0  0  0  0  0
    9.2890   37.8050    9.1540 C   0  0  0  0  0  0  0  0  0  0  0  0
   12.6800   39.8620   11.7640 C   0  0  0  0  0  0  0  0  0  0  0  0
   13.8870   39.1840   11.5010 C   0  0  0  0  0  0  0  0  0  0  0  0
   14.9580   39.2820   12.4050 C   0  0  0  0  0  0  0  0  0  0  0  0
   14.8190   40.0590   13.5680 C   0  0  0  0  0  0  0  0  0  0  0  0
   15.8480   40.1610   14.4410 F   0  0  0  0  0  0  0  0  0  0  0  0
   13.6080   40.7310   13.8260 C   0  0  0  0  0  0  0  0  0  0  0  0
   12.5090   40.6460   12.9370 C   0  0  0  0  0  0  0  0  0  0  0  0
   10.6537   39.6477   19.7089 H   0  0  0  0  0  0  0  0  0  0  0  0
    9.8464   38.9229   18.2772 H   0  0  0  0  0  0  0  0  0  0  0  0
   11.6261   39.1664   18.2772 H   0  0  0  0  0  0  0  0  0  0  0  0
   10.3820   41.7147   18.8221 H   0  0  0  0  0  0  0  0  0  0  0  0
   11.3381   41.2297   17.3832 H   0  0  0  0  0  0  0  0  0  0  0  0
   10.0624   39.2602   15.8976 H   0  0  0  0  0  0  0  0  0  0  0  0
    9.1543   39.3551   14.3506 H   0  0  0  0  0  0  0  0  0  0  0  0
   10.9453   39.4930   14.3506 H   0  0  0  0  0  0  0  0  0  0  0  0
    9.8663   42.7171   13.6229 H   0  0  0  0  0  0  0  0  0  0  0  0
   11.4205   42.5385   14.5480 H   0  0  0  0  0  0  0  0  0  0  0  0
   10.7461   39.9593    9.1014 H   0  0  0  0  0  0  0  0  0  0  0  0
   12.3062   39.0319    9.3904 H   0  0  0  0  0  0  0  0  0  0  0  0
   12.0096   36.9470   11.0790 H   0  0  0  0  0  0  0  0  0  0  0  0
   10.7612   34.7875   11.1918 H   0  0  0  0  0  0  0  0  0  0  0  0
    8.5720   34.5390   10.0034 H   0  0  0  0  0  0  0  0  0  0  0  0
    6.8170   35.4537    8.6197 H   0  0  0  0  0  0  0  0  0  0  0  0
    5.8389   37.3507    7.3067 H   0  0  0  0  0  0  0  0  0  0  0  0
    7.0579   39.5364    7.1725 H   0  0  0  0  0  0  0  0  0  0  0  0
    9.2478   39.8299    8.3416 H   0  0  0  0  0  0  0  0  0  0  0  0
   13.9906   38.5784   10.5886 H   0  0  0  0  0  0  0  0  0  0  0  0
   15.9012   38.7530   12.2035 H   0  0  0  0  0  0  0  0  0  0  0  0
   13.5139   41.3361   14.7398 H   0  0  0  0  0  0  0  0  0  0  0  0
  1  2  1  0
  2  3  1  0
  3  4  1  0
  4  5  2  0
  4  6  1  0
  6  7  1  0
  6  8  1  0
  8  9  1  0
  9 10  2  0
 10 11  1  0
 11 12  2  0
 11 13  1  0
 10 14  1  0
 14 15  1  0
 15 16  1  0
 16 17  2  0
 17 18  1  0
 18 19  2  0
 19 20  1  0
 20 21  2  0
 21 22  1  0
 22 23  2  0
 23 24  1  0
 24 25  2  0
 14 26  1  0
 26 27  2  0
 27 28  1  0
 28 29  2  0
 29 30  1  0
 29 31  1  0
 31 32  2  0
 32  9  1  0
 25 16  1  0
 32 26  1  0
 25 20  1  0
  1 33  1  0
  1 34  1  0
  1 35  1  0
  2 36  1  0
  2 37  1  0
  7 38  1  0
  7 39  1  0
  7 40  1  0
  8 41  1  0
  8 42  1  0
 15 43  1  0
 15 44  1  0
 17 45  1  0
 18 46  1  0
 19 47  1  0
 21 48  1  0
 22 49  1  0
 23 50  1  0
 24 51  1  0
 27 52  1  0
 28 53  1  0
 31 54  1  0
M  CHG  1  13  -1
M  END
>  <meeko>  (317) 
{"free_energy": -5.39, "intermolecular_energy": -7.78, "internal_energy": -1.82, "cluster_size": 20, "cluster_id": 43, "rank_in_cluster": 7}

$$$$

     RDKit          3D

 54 57  0  0  0  0  0  0  0  0999 V2000
    5.4110   36.5130   18.8960 C   0  0  0  0  0  0  0  0  0  0  0  0
    6.3840   35.3890   19.2600 C   0  0  0  0  0  0  0  0  0  0  0  0
    6.7310   34.6730   18.0860 O   0  0  0  0  0  0  0  0  0  0  0  0
    7.9930   34.7260   17.6090 C   0  0  0  0  0  0  0  0  0  0  0  0
    8.8100   33.8160   17.7510 O   0  0  0  0  0  0  0  0  0  0  0  0
    8.2150   35.9390   16.9430 N   0  0  0  0  0  0  0  0  0  0  0  0
    7.1790   36.5840   16.1300 C   0  0  0  0  0  0  0  0  0  0  0  0
    9.5190   36.6130   17.0040 C   0  0  0  0  0  0  0  0  0  0  0  0
   10.1010   36.8580   15.6320 C   0  0  0  0  0  0  0  0  0  0  0  0
    9.8470   36.1840   14.4500 C   0  0  0  0  0  0  0  0  0  0  0  0
    8.9050   35.0540   14.1800 C   0  0  0  0  0  0  0  0  0  0  0  0
    8.8580   34.1050   14.9920 O   0  0  0  0  0  0  0  0  0  0  0  0
    8.1940   35.0490   13.1520 O   0  0  0  0  0  1  0  0  0  0  0  0
   10.6700   36.7200   13.4360 N   0  0  0  0  0  0  0  0  0  0  0  0
   10.7430   36.3340   12.0240 C   0  0  0  0  0  0  0  0  0  0  0  0
    9.6060   36.8770   11.1470 C   0  0  0  0  0  0  0  0  0  0  0  0
    8.7060   35.9960   10.4980 C   0  0  0  0  0  0  0  0  0  0  0  0
    7.6640   36.4880    9.6940 C   0  0  0  0  0  0  0  0  0  0  0  0
    7.5030   37.8730    9.5230 C   0  0  0  0  0  0  0  0  0  0  0  0
    8.3850   38.7690   10.1570 C   0  0  0  0  0  0  0  0  0  0  0  0
    8.2090   40.1560    9.9740 C   0  0  0  0  0  0  0  0  0  0  0  0
    9.0780   41.0690   10.5970 C   0  0  0  0  0  0  0  0  0  0  0  0
   10.1270   40.5960   11.4050 C   0  0  0  0  0  0  0  0  0  0  0  0
   10.3080   39.2120   11.5920 C   0  0  0  0  0  0  0  0  0  0  0  0
    9.4420   38.2780   10.9720 C   0  0  0  0  0  0  0  0  0  0  0  0
   11.4520   37.7360   13.9700 C   0  0  0  0  0  0  0  0  0  0  0  0
   12.4330   38.5680   13.3930 C   0  0  0  0  0  0  0  0  0  0  0  0
   13.0760   39.5400   14.1770 C   0  0  0  0  0  0  0  0  0  0  0  0
   12.7350   39.6780   15.5340 C   0  0  0  0  0  0  0  0  0  0  0  0
   13.3490   40.6160   16.2940 F   0  0  0  0  0  0  0  0  0  0  0  0
   11.7560   38.8410   16.1040 C   0  0  0  0  0  0  0  0  0  0  0  0
   11.0960   37.8480   15.3410 C   0  0  0  0  0  0  0  0  0  0  0  0
    5.0165   36.9687   19.8161 H   0  0  0  0  0  0  0  0  0  0  0  0
    5.9377   37.2769   18.3051 H   0  0  0  0  0  0  0  0  0  0  0  0
    4.5796   36.1012   18.3051 H   0  0  0  0  0  0  0  0  0  0  0  0
    7.2909   35.8191   19.7100 H   0  0  0  0  0  0  0  0  0  0  0  0
    5.9081   34.7078   19.9808 H   0  0  0  0  0  0  0  0  0  0  0  0
    6.4318   37.0492   16.7898 H   0  0  0  0  0  0  0  0  0  0  0  0
    7.6387   37.3558   15.4952 H   0  0  0  0  0  0  0  0  0  0  0  0
    6.6893   35.8309   15.4952 H   0  0  0  0  0  0  0  0  0  0  0  0
    9.3942   37.5799   17.5134 H   0  0  0  0  0  0  0  0  0  0  0  0
   10.2119   35.9575   17.5519 H   0  0  0  0  0  0  0  0  0  0  0  0
   11.6954   36.7045   11.6171 H   0  0  0  0  0  0  0  0  0  0  0  0
   10.6563   35.2377   11.9985 H   0  0  0  0  0  0  0  0  0  0  0  0
    8.8249   34.9099   10.6255 H   0  0  0  0  0  0  0  0  0  0  0  0
    6.9744   35.7887    9.1985 H   0  0  0  0  0  0  0  0  0  0  0  0
    6.6873   38.2579    8.8933 H   0  0  0  0  0  0  0  0  0  0  0  0
    7.3885   40.5252    9.3412 H   0  0  0  0  0  0  0  0  0  0  0  0
    8.9376   42.1504   10.4527 H   0  0  0  0  0  0  0  0  0  0  0  0
   10.8082   41.3090   11.8924 H   0  0  0  0  0  0  0  0  0  0  0  0
   11.1312   38.8521   12.2267 H   0  0  0  0  0  0  0  0  0  0  0  0
   12.6945   38.4561   12.3304 H   0  0  0  0  0  0  0  0  0  0  0  0
   13.8430   40.1904   13.7313 H   0  0  0  0  0  0  0  0  0  0  0  0
   11.4984   38.9618   17.1666 H   0  0  0  0  0  0  0  0  0  0  0  0
  1  2  1  0
  2  3  1  0
  3  4  1  0
  4  5  2  0
  4  6  1  0
  6  7  1  0
  6  8  1  0
  8  9  1  0
  9 10  2  0
 10 11  1  0
 11 12  2  0
 11 13  1  0
 10 14  1  0
 14 15  1  0
 15 16  1  0
 16 17  2  0
 17 18  1  0
 18 19  2  0
 19 20  1  0
 20 21  2  0
 21 22  1  0
 22 23  2  0
 23 24  1  0
 24 25  2  0
 14 26  1  0
 26 27  2  0
 27 28  1  0
 28 29  2  0
 29 30  1  0
 29 31  1  0
 31 32  2  0
 32  9  1  0
 25 16  1  0
 32 26  1  0
 25 20  1  0
  1 33  1  0
  1 34  1  0
  1 35  1  0
  2 36  1  0
  2 37  1  0
  7 38  1  0
  7 39  1  0
  7 40  1  0
  8 41  1  0
  8 42  1  0
 15 43  1  0
 15 44  1  0
 17 45  1  0
 18 46  1  0
 19 47  1  0
 21 48  1  0
 22 49  1  0
 23 50  1  0
 24 51  1  0
 27 52  1  0
 28 53  1  0
 31 54  1  0
M  CHG  1  13  -1
M  END
>  <meeko>  (318) 
{"free_energy": -7.07, "intermolecular_energy": -9.45, "internal_energy": -1.21, "cluster_size": 263, "cluster_id": 1, "rank_in_cluster": 92}

$$$$

     RDKit          3D

 54 57  0  0  0  0  0  0  0  0999 V2000
   11.4410   42.6850   17.8020 C   0  0  0  0  0  0  0  0  0  0  0  0
   11.3290   42.1200   16.3840 C   0  0  0  0  0  0  0  0  0  0  0  0
   10.0450   41.5410   16.2120 O   0  0  0  0  0  0  0  0  0  0  0  0
    9.9090   40.3890   15.5220 C   0  0  0  0  0  0  0  0  0  0  0  0
    9.5530   40.3430   14.3430 O   0  0  0  0  0  0  0  0  0  0  0  0
   10.2340   39.2910   16.3290 N   0  0  0  0  0  0  0  0  0  0  0  0
    9.9800   39.2840   17.7740 C   0  0  0  0  0  0  0  0  0  0  0  0
   10.8750   38.0960   15.7670 C   0  0  0  0  0  0  0  0  0  0  0  0
   11.2940   38.2930   14.3290 C   0  0  0  0  0  0  0  0  0  0  0  0
   10.8510   37.6290   13.1990 C   0  0  0  0  0  0  0  0  0  0  0  0
    9.8150   36.5580   13.0660 C   0  0  0  0  0  0  0  0  0  0  0  0
    8.6700   36.7710   13.5200 O   0  0  0  0  0  0  0  0  0  0  0  0
   10.0950   35.4640   12.5290 O   0  0  0  0  0  1  0  0  0  0  0  0
   11.5700   38.1050   12.0810 N   0  0  0  0  0  0  0  0  0  0  0  0
   11.4400   37.7050   10.6770 C   0  0  0  0  0  0  0  0  0  0  0  0
   10.1470   38.1680    9.9920 C   0  0  0  0  0  0  0  0  0  0  0  0
    9.8580   39.5480    9.8440 C   0  0  0  0  0  0  0  0  0  0  0  0
    8.6750   39.9760    9.2170 C   0  0  0  0  0  0  0  0  0  0  0  0
    7.7580   39.0330    8.7290 C   0  0  0  0  0  0  0  0  0  0  0  0
    8.0210   37.6560    8.8660 C   0  0  0  0  0  0  0  0  0  0  0  0
    7.0880   36.7230    8.3690 C   0  0  0  0  0  0  0  0  0  0  0  0
    7.3300   35.3430    8.4950 C   0  0  0  0  0  0  0  0  0  0  0  0
    8.5080   34.8940    9.1180 C   0  0  0  0  0  0  0  0  0  0  0  0
    9.4440   35.8210    9.6170 C   0  0  0  0  0  0  0  0  0  0  0  0
    9.2160   37.2150    9.4980 C   0  0  0  0  0  0  0  0  0  0  0  0
   12.4740   39.0730   12.4980 C   0  0  0  0  0  0  0  0  0  0  0  0
   13.4240   39.8380   11.7900 C   0  0  0  0  0  0  0  0  0  0  0  0
   14.2200   40.7730   12.4720 C   0  0  0  0  0  0  0  0  0  0  0  0
   14.0630   40.9420   13.8590 C   0  0  0  0  0  0  0  0  0  0  0  0
   14.8240   41.8440   14.5220 F   0  0  0  0  0  0  0  0  0  0  0  0
   13.1140   40.1720   14.5590 C   0  0  0  0  0  0  0  0  0  0  0  0
   12.3030   39.2170   13.9000 C   0  0  0  0  0  0  0  0  0  0  0  0
   11.2810   41.8779   18.5320 H   0  0  0  0  0  0  0  0  0  0  0  0
   12.4423   43.1170   17.9466 H   0  0  0  0  0  0  0  0  0  0  0  0
   10.6802   43.4663   17.9466 H   0  0  0  0  0  0  0  0  0  0  0  0
   11.4680   42.9303   15.6532 H   0  0  0  0  0  0  0  0  0  0  0  0
   12.1033   41.3541   16.2294 H   0  0  0  0  0  0  0  0  0  0  0  0
   10.9376   39.3104   18.3147 H   0  0  0  0  0  0  0  0  0  0  0  0
    9.3813   40.1660   18.0453 H   0  0  0  0  0  0  0  0  0  0  0  0
    9.4307   38.3704   18.0453 H   0  0  0  0  0  0  0  0  0  0  0  0
   11.7665   37.8580   16.3658 H   0  0  0  0  0  0  0  0  0  0  0  0
   10.1420   37.2763   15.7947 H   0  0  0  0  0  0  0  0  0  0  0  0
   12.2910   38.1257   10.1213 H   0  0  0  0  0  0  0  0  0  0  0  0
   11.4172   36.6053   10.6696 H   0  0  0  0  0  0  0  0  0  0  0  0
   10.5700   40.2948   10.2254 H   0  0  0  0  0  0  0  0  0  0  0  0
    8.4681   41.0509    9.1089 H   0  0  0  0  0  0  0  0  0  0  0  0
    6.8325   39.3694    8.2388 H   0  0  0  0  0  0  0  0  0  0  0  0
    6.1674   37.0755    7.8809 H   0  0  0  0  0  0  0  0  0  0  0  0
    6.5999   34.6173    8.1073 H   0  0  0  0  0  0  0  0  0  0  0  0
    8.6993   33.8152    9.2160 H   0  0  0  0  0  0  0  0  0  0  0  0
   10.3615   35.4593   10.1041 H   0  0  0  0  0  0  0  0  0  0  0  0
   13.5415   39.7026   10.7047 H   0  0  0  0  0  0  0  0  0  0  0  0
   14.9630   41.3704   11.9234 H   0  0  0  0  0  0  0  0  0  0  0  0
   13.0003   40.3161   15.6436 H   0  0  0  0  0  0  0  0  0  0  0  0
  1  2  1  0
  2  3  1  0
  3  4  1  0
  4  5  2  0
  4  6  1  0
  6  7  1  0
  6  8  1  0
  8  9  1  0
  9 10  2  0
 10 11  1  0
 11 12  2  0
 11 13  1  0
 10 14  1  0
 14 15  1  0
 15 16  1  0
 16 17  2  0
 17 18  1  0
 18 19  2  0
 19 20  1  0
 20 21  2  0
 21 22  1  0
 22 23  2  0
 23 24  1  0
 24 25  2  0
 14 26  1  0
 26 27  2  0
 27 28  1  0
 28 29  2  0
 29 30  1  0
 29 31  1  0
 31 32  2  0
 32  9  1  0
 25 16  1  0
 32 26  1  0
 25 20  1  0
  1 33  1  0
  1 34  1  0
  1 35  1  0
  2 36  1  0
  2 37  1  0
  7 38  1  0
  7 39  1  0
  7 40  1  0
  8 41  1  0
  8 42  1  0
 15 43  1  0
 15 44  1  0
 17 45  1  0
 18 46  1  0
 19 47  1  0
 21 48  1  0
 22 49  1  0
 23 50  1  0
 24 51  1  0
 27 52  1  0
 28 53  1  0
 31 54  1  0
M  CHG  1  13  -1
M  END
>  <meeko>  (319) 
{"free_energy": -5.03, "intermolecular_energy": -7.42, "internal_energy": -1.97, "cluster_size": 50, "cluster_id": 39, "rank_in_cluster": 41}

$$$$

     RDKit          3D

 54 57  0  0  0  0  0  0  0  0999 V2000
   13.6900   46.5420   11.6380 C   0  0  0  0  0  0  0  0  0  0  0  0
   12.9510   45.2700   12.0600 C   0  0  0  0  0  0  0  0  0  0  0  0
   13.0030   44.3270   11.0010 O   0  0  0  0  0  0  0  0  0  0  0  0
   13.3700   43.0510   11.2490 C   0  0  0  0  0  0  0  0  0  0  0  0
   13.9700   42.3480   10.4340 O   0  0  0  0  0  0  0  0  0  0  0  0
   12.9800   42.6690   12.5390 N   0  0  0  0  0  0  0  0  0  0  0  0
   13.9480   42.4940   13.6270 C   0  0  0  0  0  0  0  0  0  0  0  0
   11.5730   42.3950   12.8590 C   0  0  0  0  0  0  0  0  0  0  0  0
   10.9710   41.3510   11.9480 C   0  0  0  0  0  0  0  0  0  0  0  0
    9.6740   41.2580   11.4750 C   0  0  0  0  0  0  0  0  0  0  0  0
    8.5100   42.1710   11.6960 C   0  0  0  0  0  0  0  0  0  0  0  0
    7.3660   41.7700   11.3910 O   0  0  0  0  0  0  0  0  0  0  0  0
    8.6810   43.3200   12.1590 O   0  0  0  0  0  1  0  0  0  0  0  0
    9.5550   40.0810   10.7050 N   0  0  0  0  0  0  0  0  0  0  0  0
    8.3770   39.5700    9.9980 C   0  0  0  0  0  0  0  0  0  0  0  0
    8.2290   38.0430   10.0110 C   0  0  0  0  0  0  0  0  0  0  0  0
    8.4940   37.2980   11.1860 C   0  0  0  0  0  0  0  0  0  0  0  0
    8.3590   35.8990   11.2020 C   0  0  0  0  0  0  0  0  0  0  0  0
    7.9590   35.2180   10.0410 C   0  0  0  0  0  0  0  0  0  0  0  0
    7.6920   35.9360    8.8600 C   0  0  0  0  0  0  0  0  0  0  0  0
    7.2910   35.2370    7.7030 C   0  0  0  0  0  0  0  0  0  0  0  0
    7.0200   35.9330    6.5120 C   0  0  0  0  0  0  0  0  0  0  0  0
    7.1470   37.3330    6.4760 C   0  0  0  0  0  0  0  0  0  0  0  0
    7.5470   38.0370    7.6270 C   0  0  0  0  0  0  0  0  0  0  0  0
    7.8250   37.3520    8.8360 C   0  0  0  0  0  0  0  0  0  0  0  0
   10.7770   39.4210   10.6860 C   0  0  0  0  0  0  0  0  0  0  0  0
   11.1830   38.2120   10.0830 C   0  0  0  0  0  0  0  0  0  0  0  0
   12.5100   37.7730   10.2190 C   0  0  0  0  0  0  0  0  0  0  0  0
   13.4270   38.5420   10.9570 C   0  0  0  0  0  0  0  0  0  0  0  0
   14.7080   38.1260   11.0890 F   0  0  0  0  0  0  0  0  0  0  0  0
   13.0130   39.7460   11.5590 C   0  0  0  0  0  0  0  0  0  0  0  0
   11.6800   40.2110   11.4450 C   0  0  0  0  0  0  0  0  0  0  0  0
   14.0107   47.0940   12.5338 H   0  0  0  0  0  0  0  0  0  0  0  0
   14.5718   46.2719   11.0385 H   0  0  0  0  0  0  0  0  0  0  0  0
   13.0186   47.1743   11.0385 H   0  0  0  0  0  0  0  0  0  0  0  0
   13.4304   44.8456   12.9544 H   0  0  0  0  0  0  0  0  0  0  0  0
   11.9024   45.5107   12.2893 H   0  0  0  0  0  0  0  0  0  0  0  0
   13.4330   42.5871   14.5945 H   0  0  0  0  0  0  0  0  0  0  0  0
   14.4087   41.4980   13.5512 H   0  0  0  0  0  0  0  0  0  0  0  0
   14.7283   43.2656   13.5512 H   0  0  0  0  0  0  0  0  0  0  0  0
   11.5094   42.0375   13.8974 H   0  0  0  0  0  0  0  0  0  0  0  0
   11.0082   43.3287   12.7205 H   0  0  0  0  0  0  0  0  0  0  0  0
    7.4817   40.0043   10.4670 H   0  0  0  0  0  0  0  0  0  0  0  0
    8.4996   39.8595    8.9439 H   0  0  0  0  0  0  0  0  0  0  0  0
    8.8103   37.8222   12.0999 H   0  0  0  0  0  0  0  0  0  0  0  0
    8.5668   35.3373   12.1246 H   0  0  0  0  0  0  0  0  0  0  0  0
    7.8543   34.1231   10.0544 H   0  0  0  0  0  0  0  0  0  0  0  0
    7.1897   34.1421    7.7324 H   0  0  0  0  0  0  0  0  0  0  0  0
    6.7095   35.3840    5.6108 H   0  0  0  0  0  0  0  0  0  0  0  0
    6.9331   37.8794    5.5456 H   0  0  0  0  0  0  0  0  0  0  0  0
    7.6450   39.1319    7.5878 H   0  0  0  0  0  0  0  0  0  0  0  0
   10.4613   37.6141    9.5072 H   0  0  0  0  0  0  0  0  0  0  0  0
   12.8308   36.8311    9.7500 H   0  0  0  0  0  0  0  0  0  0  0  0
   13.7418   40.3390   12.1310 H   0  0  0  0  0  0  0  0  0  0  0  0
  1  2  1  0
  2  3  1  0
  3  4  1  0
  4  5  2  0
  4  6  1  0
  6  7  1  0
  6  8  1  0
  8  9  1  0
  9 10  2  0
 10 11  1  0
 11 12  2  0
 11 13  1  0
 10 14  1  0
 14 15  1  0
 15 16  1  0
 16 17  2  0
 17 18  1  0
 18 19  2  0
 19 20  1  0
 20 21  2  0
 21 22  1  0
 22 23  2  0
 23 24  1  0
 24 25  2  0
 14 26  1  0
 26 27  2  0
 27 28  1  0
 28 29  2  0
 29 30  1  0
 29 31  1  0
 31 32  2  0
 32  9  1  0
 25 16  1  0
 32 26  1  0
 25 20  1  0
  1 33  1  0
  1 34  1  0
  1 35  1  0
  2 36  1  0
  2 37  1  0
  7 38  1  0
  7 39  1  0
  7 40  1  0
  8 41  1  0
  8 42  1  0
 15 43  1  0
 15 44  1  0
 17 45  1  0
 18 46  1  0
 19 47  1  0
 21 48  1  0
 22 49  1  0
 23 50  1  0
 24 51  1  0
 27 52  1  0
 28 53  1  0
 31 54  1  0
M  CHG  1  13  -1
M  END
>  <meeko>  (320) 
{"free_energy": -6.56, "intermolecular_energy": -8.95, "internal_energy": -1.46, "cluster_size": 210, "cluster_id": 15, "rank_in_cluster": 47}

$$$$

     RDKit          3D

 54 57  0  0  0  0  0  0  0  0999 V2000
   11.6460   41.9450   12.2230 C   0  0  0  0  0  0  0  0  0  0  0  0
   10.7140   41.8440   13.4330 C   0  0  0  0  0  0  0  0  0  0  0  0
   11.4410   42.1570   14.6100 O   0  0  0  0  0  0  0  0  0  0  0  0
   12.5930   41.5100   14.8860 C   0  0  0  0  0  0  0  0  0  0  0  0
   13.6850   41.8440   14.4240 O   0  0  0  0  0  0  0  0  0  0  0  0
   12.3590   40.4390   15.7580 N   0  0  0  0  0  0  0  0  0  0  0  0
   12.6790   40.5130   17.1880 C   0  0  0  0  0  0  0  0  0  0  0  0
   11.8020   39.1690   15.2730 C   0  0  0  0  0  0  0  0  0  0  0  0
   12.2530   38.8470   13.8680 C   0  0  0  0  0  0  0  0  0  0  0  0
   11.4890   38.4610   12.7800 C   0  0  0  0  0  0  0  0  0  0  0  0
   10.0080   38.2850   12.6690 C   0  0  0  0  0  0  0  0  0  0  0  0
    9.5330   37.1310   12.7410 O   0  0  0  0  0  0  0  0  0  0  0  0
    9.2610   39.2720   12.4880 O   0  0  0  0  0  1  0  0  0  0  0  0
   12.3480   38.2050   11.6900 N   0  0  0  0  0  0  0  0  0  0  0  0
   11.9950   37.7820   10.3320 C   0  0  0  0  0  0  0  0  0  0  0  0
   10.6360   38.2890    9.8320 C   0  0  0  0  0  0  0  0  0  0  0  0
   10.3970   39.6750    9.6570 C   0  0  0  0  0  0  0  0  0  0  0  0
    9.1540   40.1440    9.1990 C   0  0  0  0  0  0  0  0  0  0  0  0
    8.1240   39.2350    8.9090 C   0  0  0  0  0  0  0  0  0  0  0  0
    8.3360   37.8530    9.0760 C   0  0  0  0  0  0  0  0  0  0  0  0
    7.2900   36.9540    8.7800 C   0  0  0  0  0  0  0  0  0  0  0  0
    7.4790   35.5700    8.9400 C   0  0  0  0  0  0  0  0  0  0  0  0
    8.7160   35.0810    9.3960 C   0  0  0  0  0  0  0  0  0  0  0  0
    9.7640   35.9730    9.6940 C   0  0  0  0  0  0  0  0  0  0  0  0
    9.5910   37.3710    9.5380 C   0  0  0  0  0  0  0  0  0  0  0  0
   13.6620   38.4280   12.0810 C   0  0  0  0  0  0  0  0  0  0  0  0
   14.8830   38.3040   11.3860 C   0  0  0  0  0  0  0  0  0  0  0  0
   16.0920   38.6080   12.0340 C   0  0  0  0  0  0  0  0  0  0  0  0
   16.0770   39.0360   13.3720 C   0  0  0  0  0  0  0  0  0  0  0  0
   17.2380   39.3340   14.0010 F   0  0  0  0  0  0  0  0  0  0  0  0
   14.8540   39.1530   14.0610 C   0  0  0  0  0  0  0  0  0  0  0  0
   13.6200   38.8480   13.4370 C   0  0  0  0  0  0  0  0  0  0  0  0
   12.6843   42.0575   12.5683 H   0  0  0  0  0  0  0  0  0  0  0  0
   11.5585   41.0321   11.6156 H   0  0  0  0  0  0  0  0  0  0  0  0
   11.3650   42.8179   11.6156 H   0  0  0  0  0  0  0  0  0  0  0  0
    9.8810   42.5528   13.3158 H   0  0  0  0  0  0  0  0  0  0  0  0
   10.3142   40.8219   13.5068 H   0  0  0  0  0  0  0  0  0  0  0  0
   11.7742   40.3038   17.7775 H   0  0  0  0  0  0  0  0  0  0  0  0
   13.4537   39.7703   17.4293 H   0  0  0  0  0  0  0  0  0  0  0  0
   13.0490   41.5204   17.4293 H   0  0  0  0  0  0  0  0  0  0  0  0
   12.1279   38.3603   15.9436 H   0  0  0  0  0  0  0  0  0  0  0  0
   10.7061   39.2634   15.2623 H   0  0  0  0  0  0  0  0  0  0  0  0
   12.7714   38.1516    9.6460 H   0  0  0  0  0  0  0  0  0  0  0  0
   11.9250   36.6845   10.3583 H   0  0  0  0  0  0  0  0  0  0  0  0
   11.1972   40.3950    9.8833 H   0  0  0  0  0  0  0  0  0  0  0  0
    8.9880   41.2234    9.0677 H   0  0  0  0  0  0  0  0  0  0  0  0
    7.1510   39.6026    8.5512 H   0  0  0  0  0  0  0  0  0  0  0  0
    6.3228   37.3372    8.4227 H   0  0  0  0  0  0  0  0  0  0  0  0
    6.6612   34.8715    8.7090 H   0  0  0  0  0  0  0  0  0  0  0  0
    8.8655   33.9983    9.5203 H   0  0  0  0  0  0  0  0  0  0  0  0
   10.7273   35.5806   10.0517 H   0  0  0  0  0  0  0  0  0  0  0  0
   14.8887   37.9697   10.3380 H   0  0  0  0  0  0  0  0  0  0  0  0
   17.0465   38.5113   11.4958 H   0  0  0  0  0  0  0  0  0  0  0  0
   14.8576   39.4892   15.1084 H   0  0  0  0  0  0  0  0  0  0  0  0
  1  2  1  0
  2  3  1  0
  3  4  1  0
  4  5  2  0
  4  6  1  0
  6  7  1  0
  6  8  1  0
  8  9  1  0
  9 10  2  0
 10 11  1  0
 11 12  2  0
 11 13  1  0
 10 14  1  0
 14 15  1  0
 15 16  1  0
 16 17  2  0
 17 18  1  0
 18 19  2  0
 19 20  1  0
 20 21  2  0
 21 22  1  0
 22 23  2  0
 23 24  1  0
 24 25  2  0
 14 26  1  0
 26 27  2  0
 27 28  1  0
 28 29  2  0
 29 30  1  0
 29 31  1  0
 31 32  2  0
 32  9  1  0
 25 16  1  0
 32 26  1  0
 25 20  1  0
  1 33  1  0
  1 34  1  0
  1 35  1  0
  2 36  1  0
  2 37  1  0
  7 38  1  0
  7 39  1  0
  7 40  1  0
  8 41  1  0
  8 42  1  0
 15 43  1  0
 15 44  1  0
 17 45  1  0
 18 46  1  0
 19 47  1  0
 21 48  1  0
 22 49  1  0
 23 50  1  0
 24 51  1  0
 27 52  1  0
 28 53  1  0
 31 54  1  0
M  CHG  1  13  -1
M  END
>  <meeko>  (321) 
{"free_energy": -4.81, "intermolecular_energy": -7.2, "internal_energy": -2.4, "cluster_size": 29, "cluster_id": 57, "rank_in_cluster": 22}

$$$$

     RDKit          3D

 54 57  0  0  0  0  0  0  0  0999 V2000
    8.8110   37.0680   14.6710 C   0  0  0  0  0  0  0  0  0  0  0  0
    9.7810   36.7110   13.5420 C   0  0  0  0  0  0  0  0  0  0  0  0
   10.1620   35.3510   13.6670 O   0  0  0  0  0  0  0  0  0  0  0  0
    9.3810   34.4890   14.3530 C   0  0  0  0  0  0  0  0  0  0  0  0
    8.1670   34.3850   14.1740 O   0  0  0  0  0  0  0  0  0  0  0  0
   10.1470   33.7530   15.2670 N   0  0  0  0  0  0  0  0  0  0  0  0
   11.2390   32.8720   14.8380 C   0  0  0  0  0  0  0  0  0  0  0  0
    9.8710   33.8060   16.7090 C   0  0  0  0  0  0  0  0  0  0  0  0
    9.8420   35.2230   17.2340 C   0  0  0  0  0  0  0  0  0  0  0  0
   10.8770   36.1370   17.3200 C   0  0  0  0  0  0  0  0  0  0  0  0
   12.3050   36.0050   16.8900 C   0  0  0  0  0  0  0  0  0  0  0  0
   12.8550   34.8850   16.9720 O   0  0  0  0  0  0  0  0  0  0  0  0
   12.9400   36.9990   16.4760 O   0  0  0  0  0  1  0  0  0  0  0  0
   10.3960   37.3110   17.9370 N   0  0  0  0  0  0  0  0  0  0  0  0
   11.1240   38.5490   18.2300 C   0  0  0  0  0  0  0  0  0  0  0  0
   10.5160   39.8160   17.6140 C   0  0  0  0  0  0  0  0  0  0  0  0
    9.8140   40.7490   18.4180 C   0  0  0  0  0  0  0  0  0  0  0  0
    9.2550   41.9110   17.8590 C   0  0  0  0  0  0  0  0  0  0  0  0
    9.3860   42.1610   16.4830 C   0  0  0  0  0  0  0  0  0  0  0  0
   10.0770   41.2490   15.6630 C   0  0  0  0  0  0  0  0  0  0  0  0
   10.1990   41.5160   14.2840 C   0  0  0  0  0  0  0  0  0  0  0  0
   10.8840   40.6190   13.4460 C   0  0  0  0  0  0  0  0  0  0  0  0
   11.4510   39.4520   13.9870 C   0  0  0  0  0  0  0  0  0  0  0  0
   11.3330   39.1790   15.3630 C   0  0  0  0  0  0  0  0  0  0  0  0
   10.6460   40.0720   16.2220 C   0  0  0  0  0  0  0  0  0  0  0  0
    9.0520   37.1480   18.2460 C   0  0  0  0  0  0  0  0  0  0  0  0
    8.1220   38.0030   18.8730 C   0  0  0  0  0  0  0  0  0  0  0  0
    6.7950   37.5800   19.0570 C   0  0  0  0  0  0  0  0  0  0  0  0
    6.4020   36.3060   18.6120 C   0  0  0  0  0  0  0  0  0  0  0  0
    5.1240   35.8930   18.7820 F   0  0  0  0  0  0  0  0  0  0  0  0
    7.3380   35.4560   17.9900 C   0  0  0  0  0  0  0  0  0  0  0  0
    8.6840   35.8520   17.7970 C   0  0  0  0  0  0  0  0  0  0  0  0
    9.2965   36.8893   15.6417 H   0  0  0  0  0  0  0  0  0  0  0  0
    8.5299   38.1285   14.5913 H   0  0  0  0  0  0  0  0  0  0  0  0
    7.9095   36.4427   14.5913 H   0  0  0  0  0  0  0  0  0  0  0  0
    9.2887   36.8673   12.5708 H   0  0  0  0  0  0  0  0  0  0  0  0
   10.6729   37.3518   13.6047 H   0  0  0  0  0  0  0  0  0  0  0  0
   11.7479   32.4614   15.7226 H   0  0  0  0  0  0  0  0  0  0  0  0
   10.8300   32.0480   14.2349 H   0  0  0  0  0  0  0  0  0  0  0  0
   11.9578   33.4461   14.2349 H   0  0  0  0  0  0  0  0  0  0  0  0
    8.8942   33.3376   16.9000 H   0  0  0  0  0  0  0  0  0  0  0  0
   10.6804   33.2708   17.2272 H   0  0  0  0  0  0  0  0  0  0  0  0
   11.1517   38.6791   19.3219 H   0  0  0  0  0  0  0  0  0  0  0  0
   12.1213   38.4348   17.7803 H   0  0  0  0  0  0  0  0  0  0  0  0
    9.7051   40.5605   19.4962 H   0  0  0  0  0  0  0  0  0  0  0  0
    8.7151   42.6245   18.4988 H   0  0  0  0  0  0  0  0  0  0  0  0
    8.9481   43.0704   16.0457 H   0  0  0  0  0  0  0  0  0  0  0  0
    9.7562   42.4302   13.8620 H   0  0  0  0  0  0  0  0  0  0  0  0
   10.9760   40.8296   12.3703 H   0  0  0  0  0  0  0  0  0  0  0  0
   11.9887   38.7498   13.3330 H   0  0  0  0  0  0  0  0  0  0  0  0
   11.7791   38.2622   15.7758 H   0  0  0  0  0  0  0  0  0  0  0  0
    8.4352   38.9996   19.2175 H   0  0  0  0  0  0  0  0  0  0  0  0
    6.0668   38.2429   19.5472 H   0  0  0  0  0  0  0  0  0  0  0  0
    7.0158   34.4619   17.6464 H   0  0  0  0  0  0  0  0  0  0  0  0
  1  2  1  0
  2  3  1  0
  3  4  1  0
  4  5  2  0
  4  6  1  0
  6  7  1  0
  6  8  1  0
  8  9  1  0
  9 10  2  0
 10 11  1  0
 11 12  2  0
 11 13  1  0
 10 14  1  0
 14 15  1  0
 15 16  1  0
 16 17  2  0
 17 18  1  0
 18 19  2  0
 19 20  1  0
 20 21  2  0
 21 22  1  0
 22 23  2  0
 23 24  1  0
 24 25  2  0
 14 26  1  0
 26 27  2  0
 27 28  1  0
 28 29  2  0
 29 30  1  0
 29 31  1  0
 31 32  2  0
 32  9  1  0
 25 16  1  0
 32 26  1  0
 25 20  1  0
  1 33  1  0
  1 34  1  0
  1 35  1  0
  2 36  1  0
  2 37  1  0
  7 38  1  0
  7 39  1  0
  7 40  1  0
  8 41  1  0
  8 42  1  0
 15 43  1  0
 15 44  1  0
 17 45  1  0
 18 46  1  0
 19 47  1  0
 21 48  1  0
 22 49  1  0
 23 50  1  0
 24 51  1  0
 27 52  1  0
 28 53  1  0
 31 54  1  0
M  CHG  1  13  -1
M  END
>  <meeko>  (322) 
{"free_energy": -4.49, "intermolecular_energy": -6.87, "internal_energy": -2.73, "cluster_size": 6, "cluster_id": 254, "rank_in_cluster": 2}

$$$$

     RDKit          3D

 54 57  0  0  0  0  0  0  0  0999 V2000
    9.2780   36.5690   13.1550 C   0  0  0  0  0  0  0  0  0  0  0  0
    9.2210   37.6890   14.1970 C   0  0  0  0  0  0  0  0  0  0  0  0
    9.9320   38.8160   13.7100 O   0  0  0  0  0  0  0  0  0  0  0  0
   10.7960   39.4690   14.5150 C   0  0  0  0  0  0  0  0  0  0  0  0
   11.1130   40.6490   14.3540 O   0  0  0  0  0  0  0  0  0  0  0  0
   11.2560   38.6230   15.5320 N   0  0  0  0  0  0  0  0  0  0  0  0
   12.0500   37.4220   15.2490 C   0  0  0  0  0  0  0  0  0  0  0  0
   10.9380   38.8840   16.9430 C   0  0  0  0  0  0  0  0  0  0  0  0
    9.7970   38.0280   17.4390 C   0  0  0  0  0  0  0  0  0  0  0  0
    8.7450   38.3810   18.2660 C   0  0  0  0  0  0  0  0  0  0  0  0
    8.4130   39.7070   18.8740 C   0  0  0  0  0  0  0  0  0  0  0  0
    9.3200   40.5610   18.9850 O   0  0  0  0  0  0  0  0  0  0  0  0
    7.2560   39.9490   19.2820 O   0  0  0  0  0  1  0  0  0  0  0  0
    7.9570   37.2360   18.5130 N   0  0  0  0  0  0  0  0  0  0  0  0
    6.7390   37.1260   19.3200 C   0  0  0  0  0  0  0  0  0  0  0  0
    5.4360   37.0450   18.5130 C   0  0  0  0  0  0  0  0  0  0  0  0
    5.3330   36.1940   17.3840 C   0  0  0  0  0  0  0  0  0  0  0  0
    4.1420   36.1160   16.6430 C   0  0  0  0  0  0  0  0  0  0  0  0
    3.0310   36.8890   17.0150 C   0  0  0  0  0  0  0  0  0  0  0  0
    3.1080   37.7440   18.1310 C   0  0  0  0  0  0  0  0  0  0  0  0
    1.9830   38.5140   18.4910 C   0  0  0  0  0  0  0  0  0  0  0  0
    2.0380   39.3740   19.6020 C   0  0  0  0  0  0  0  0  0  0  0  0
    3.2200   39.4650   20.3570 C   0  0  0  0  0  0  0  0  0  0  0  0
    4.3480   38.7000   20.0030 C   0  0  0  0  0  0  0  0  0  0  0  0
    4.3100   37.8280   18.8870 C   0  0  0  0  0  0  0  0  0  0  0  0
    8.5060   36.1500   17.8440 C   0  0  0  0  0  0  0  0  0  0  0  0
    8.1180   34.7960   17.7740 C   0  0  0  0  0  0  0  0  0  0  0  0
    8.8650   33.8930   16.9990 C   0  0  0  0  0  0  0  0  0  0  0  0
    9.9950   34.3460   16.2960 C   0  0  0  0  0  0  0  0  0  0  0  0
   10.7170   33.4810   15.5450 F   0  0  0  0  0  0  0  0  0  0  0  0
   10.3780   35.6990   16.3740 C   0  0  0  0  0  0  0  0  0  0  0  0
    9.6490   36.6310   17.1520 C   0  0  0  0  0  0  0  0  0  0  0  0
    9.3275   35.5957   13.6652 H   0  0  0  0  0  0  0  0  0  0  0  0
    8.3767   36.6076   12.5255 H   0  0  0  0  0  0  0  0  0  0  0  0
   10.1707   36.6989   12.5255 H   0  0  0  0  0  0  0  0  0  0  0  0
    8.1728   37.9669   14.3815 H   0  0  0  0  0  0  0  0  0  0  0  0
    9.6760   37.3429   15.1368 H   0  0  0  0  0  0  0  0  0  0  0  0
   12.3587   36.9550   16.1959 H   0  0  0  0  0  0  0  0  0  0  0  0
   11.4440   36.7100   14.6695 H   0  0  0  0  0  0  0  0  0  0  0  0
   12.9425   37.7006   14.6695 H   0  0  0  0  0  0  0  0  0  0  0  0
   11.8296   38.6731   17.5518 H   0  0  0  0  0  0  0  0  0  0  0  0
   10.6327   39.9371   17.0309 H   0  0  0  0  0  0  0  0  0  0  0  0
    6.8173   36.2175   19.9352 H   0  0  0  0  0  0  0  0  0  0  0  0
    6.6776   38.0495   19.9145 H   0  0  0  0  0  0  0  0  0  0  0  0
    6.1987   35.5855   17.0836 H   0  0  0  0  0  0  0  0  0  0  0  0
    4.0801   35.4487   15.7707 H   0  0  0  0  0  0  0  0  0  0  0  0
    2.0991   36.8267   16.4339 H   0  0  0  0  0  0  0  0  0  0  0  0
    1.0581   38.4416   17.9000 H   0  0  0  0  0  0  0  0  0  0  0  0
    1.1586   39.9738   19.8794 H   0  0  0  0  0  0  0  0  0  0  0  0
    3.2641   40.1361   21.2274 H   0  0  0  0  0  0  0  0  0  0  0  0
    5.2687   38.7803   20.5995 H   0  0  0  0  0  0  0  0  0  0  0  0
    7.2321   34.4475   18.3252 H   0  0  0  0  0  0  0  0  0  0  0  0
    8.5668   32.8357   16.9425 H   0  0  0  0  0  0  0  0  0  0  0  0
   11.2638   36.0397   15.8178 H   0  0  0  0  0  0  0  0  0  0  0  0
  1  2  1  0
  2  3  1  0
  3  4  1  0
  4  5  2  0
  4  6  1  0
  6  7  1  0
  6  8  1  0
  8  9  1  0
  9 10  2  0
 10 11  1  0
 11 12  2  0
 11 13  1  0
 10 14  1  0
 14 15  1  0
 15 16  1  0
 16 17  2  0
 17 18  1  0
 18 19  2  0
 19 20  1  0
 20 21  2  0
 21 22  1  0
 22 23  2  0
 23 24  1  0
 24 25  2  0
 14 26  1  0
 26 27  2  0
 27 28  1  0
 28 29  2  0
 29 30  1  0
 29 31  1  0
 31 32  2  0
 32  9  1  0
 25 16  1  0
 32 26  1  0
 25 20  1  0
  1 33  1  0
  1 34  1  0
  1 35  1  0
  2 36  1  0
  2 37  1  0
  7 38  1  0
  7 39  1  0
  7 40  1  0
  8 41  1  0
  8 42  1  0
 15 43  1  0
 15 44  1  0
 17 45  1  0
 18 46  1  0
 19 47  1  0
 21 48  1  0
 22 49  1  0
 23 50  1  0
 24 51  1  0
 27 52  1  0
 28 53  1  0
 31 54  1  0
M  CHG  1  13  -1
M  END
>  <meeko>  (323) 
{"free_energy": -6.6, "intermolecular_energy": -8.98, "internal_energy": -0.84, "cluster_size": 136, "cluster_id": 17, "rank_in_cluster": 9}

$$$$

     RDKit          3D

 54 57  0  0  0  0  0  0  0  0999 V2000
   15.2900   34.3360    9.3130 C   0  0  0  0  0  0  0  0  0  0  0  0
   14.5670   35.5620    9.8750 C   0  0  0  0  0  0  0  0  0  0  0  0
   15.4610   36.6640    9.8930 O   0  0  0  0  0  0  0  0  0  0  0  0
   16.2590   36.8700   10.9620 C   0  0  0  0  0  0  0  0  0  0  0  0
   16.7010   35.9590   11.6650 O   0  0  0  0  0  0  0  0  0  0  0  0
   16.5020   38.2390   11.1370 N   0  0  0  0  0  0  0  0  0  0  0  0
   17.7300   38.7390   11.7640 C   0  0  0  0  0  0  0  0  0  0  0  0
   15.5170   39.2470   10.7230 C   0  0  0  0  0  0  0  0  0  0  0  0
   14.2890   39.2420   11.6030 C   0  0  0  0  0  0  0  0  0  0  0  0
   12.9620   39.3880   11.2390 C   0  0  0  0  0  0  0  0  0  0  0  0
   12.3580   39.5580    9.8810 C   0  0  0  0  0  0  0  0  0  0  0  0
   12.1530   38.5400    9.1840 O   0  0  0  0  0  0  0  0  0  0  0  0
   12.0820   40.6960    9.4440 O   0  0  0  0  0  1  0  0  0  0  0  0
   12.1680   39.3820   12.4060 N   0  0  0  0  0  0  0  0  0  0  0  0
   10.7110   39.4980   12.5160 C   0  0  0  0  0  0  0  0  0  0  0  0
    9.9320   38.2330   12.1340 C   0  0  0  0  0  0  0  0  0  0  0  0
    9.5330   38.0040   10.7930 C   0  0  0  0  0  0  0  0  0  0  0  0
    8.8200   36.8460   10.4380 C   0  0  0  0  0  0  0  0  0  0  0  0
    8.4900   35.8960   11.4180 C   0  0  0  0  0  0  0  0  0  0  0  0
    8.8740   36.1010   12.7570 C   0  0  0  0  0  0  0  0  0  0  0  0
    8.5340   35.1370   13.7280 C   0  0  0  0  0  0  0  0  0  0  0  0
    8.9070   35.3220   15.0710 C   0  0  0  0  0  0  0  0  0  0  0  0
    9.6220   36.4730   15.4460 C   0  0  0  0  0  0  0  0  0  0  0  0
    9.9630   37.4400   14.4820 C   0  0  0  0  0  0  0  0  0  0  0  0
    9.5960   37.2700   13.1240 C   0  0  0  0  0  0  0  0  0  0  0  0
   12.9880   39.2320   13.5170 C   0  0  0  0  0  0  0  0  0  0  0  0
   12.7000   39.1800   14.8960 C   0  0  0  0  0  0  0  0  0  0  0  0
   13.7430   39.0090   15.8230 C   0  0  0  0  0  0  0  0  0  0  0  0
   15.0670   38.8890   15.3670 C   0  0  0  0  0  0  0  0  0  0  0  0
   16.0760   38.7210   16.2550 F   0  0  0  0  0  0  0  0  0  0  0  0
   15.3460   38.9470   13.9880 C   0  0  0  0  0  0  0  0  0  0  0  0
   14.3180   39.1250   13.0310 C   0  0  0  0  0  0  0  0  0  0  0  0
   15.6567   33.7142   10.1430 H   0  0  0  0  0  0  0  0  0  0  0  0
   14.5929   33.7500    8.6960 H   0  0  0  0  0  0  0  0  0  0  0  0
   16.1401   34.6625    8.6960 H   0  0  0  0  0  0  0  0  0  0  0  0
   13.7010   35.8013    9.2404 H   0  0  0  0  0  0  0  0  0  0  0  0
   14.2211   35.3503   10.8975 H   0  0  0  0  0  0  0  0  0  0  0  0
   17.6264   38.6968   12.8583 H   0  0  0  0  0  0  0  0  0  0  0  0
   18.5810   38.1158   11.4520 H   0  0  0  0  0  0  0  0  0  0  0  0
   17.9036   39.7794   11.4520 H   0  0  0  0  0  0  0  0  0  0  0  0
   15.9850   40.2412   10.7740 H   0  0  0  0  0  0  0  0  0  0  0  0
   15.1983   39.0059    9.6982 H   0  0  0  0  0  0  0  0  0  0  0  0
   10.4659   39.7485   13.5587 H   0  0  0  0  0  0  0  0  0  0  0  0
   10.4083   40.2752   11.7989 H   0  0  0  0  0  0  0  0  0  0  0  0
    9.7852   38.7436   10.0188 H   0  0  0  0  0  0  0  0  0  0  0  0
    8.5204   36.6838    9.3921 H   0  0  0  0  0  0  0  0  0  0  0  0
    7.9309   34.9906   11.1393 H   0  0  0  0  0  0  0  0  0  0  0  0
    7.9747   34.2366   13.4338 H   0  0  0  0  0  0  0  0  0  0  0  0
    8.6401   34.5682   15.8263 H   0  0  0  0  0  0  0  0  0  0  0  0
    9.9158   36.6182   16.4961 H   0  0  0  0  0  0  0  0  0  0  0  0
   10.5208   38.3380   14.7862 H   0  0  0  0  0  0  0  0  0  0  0  0
   11.6613   39.2730   15.2460 H   0  0  0  0  0  0  0  0  0  0  0  0
   13.5239   38.9693   16.9002 H   0  0  0  0  0  0  0  0  0  0  0  0
   16.3872   38.8518   13.6463 H   0  0  0  0  0  0  0  0  0  0  0  0
  1  2  1  0
  2  3  1  0
  3  4  1  0
  4  5  2  0
  4  6  1  0
  6  7  1  0
  6  8  1  0
  8  9  1  0
  9 10  2  0
 10 11  1  0
 11 12  2  0
 11 13  1  0
 10 14  1  0
 14 15  1  0
 15 16  1  0
 16 17  2  0
 17 18  1  0
 18 19  2  0
 19 20  1  0
 20 21  2  0
 21 22  1  0
 22 23  2  0
 23 24  1  0
 24 25  2  0
 14 26  1  0
 26 27  2  0
 27 28  1  0
 28 29  2  0
 29 30  1  0
 29 31  1  0
 31 32  2  0
 32  9  1  0
 25 16  1  0
 32 26  1  0
 25 20  1  0
  1 33  1  0
  1 34  1  0
  1 35  1  0
  2 36  1  0
  2 37  1  0
  7 38  1  0
  7 39  1  0
  7 40  1  0
  8 41  1  0
  8 42  1  0
 15 43  1  0
 15 44  1  0
 17 45  1  0
 18 46  1  0
 19 47  1  0
 21 48  1  0
 22 49  1  0
 23 50  1  0
 24 51  1  0
 27 52  1  0
 28 53  1  0
 31 54  1  0
M  CHG  1  13  -1
M  END
>  <meeko>  (324) 
{"free_energy": -4.87, "intermolecular_energy": -7.26, "internal_energy": -2.1, "cluster_size": 292, "cluster_id": 10, "rank_in_cluster": 274}

$$$$

     RDKit          3D

 54 57  0  0  0  0  0  0  0  0999 V2000
   12.4660   38.1680   10.3000 C   0  0  0  0  0  0  0  0  0  0  0  0
   12.2820   39.2010    9.1860 C   0  0  0  0  0  0  0  0  0  0  0  0
   11.0350   39.8550    9.3570 O   0  0  0  0  0  0  0  0  0  0  0  0
   10.9960   41.1520    9.7300 C   0  0  0  0  0  0  0  0  0  0  0  0
   10.7800   42.0770    8.9450 O   0  0  0  0  0  0  0  0  0  0  0  0
   11.2280   41.2750   11.1060 N   0  0  0  0  0  0  0  0  0  0  0  0
   12.5630   41.5420   11.6520 C   0  0  0  0  0  0  0  0  0  0  0  0
   10.1400   41.1120   12.0790 C   0  0  0  0  0  0  0  0  0  0  0  0
   10.1670   39.7580   12.7470 C   0  0  0  0  0  0  0  0  0  0  0  0
   10.7170   39.4040   13.9670 C   0  0  0  0  0  0  0  0  0  0  0  0
   11.4060   40.2550   14.9860 C   0  0  0  0  0  0  0  0  0  0  0  0
   12.6470   40.1650   15.1030 O   0  0  0  0  0  0  0  0  0  0  0  0
   10.7510   41.0280   15.7180 O   0  0  0  0  0  1  0  0  0  0  0  0
   10.5590   38.0130   14.1490 N   0  0  0  0  0  0  0  0  0  0  0  0
   10.9740   37.1920   15.2900 C   0  0  0  0  0  0  0  0  0  0  0  0
   10.2000   35.8770   15.4540 C   0  0  0  0  0  0  0  0  0  0  0  0
   10.7170   34.6620   14.9380 C   0  0  0  0  0  0  0  0  0  0  0  0
   10.0110   33.4550   15.0860 C   0  0  0  0  0  0  0  0  0  0  0  0
    8.7740   33.4410   15.7500 C   0  0  0  0  0  0  0  0  0  0  0  0
    8.2400   34.6360   16.2690 C   0  0  0  0  0  0  0  0  0  0  0  0
    6.9960   34.6030   16.9330 C   0  0  0  0  0  0  0  0  0  0  0  0
    6.4420   35.7840   17.4590 C   0  0  0  0  0  0  0  0  0  0  0  0
    7.1330   37.0010   17.3230 C   0  0  0  0  0  0  0  0  0  0  0  0
    8.3750   37.0400   16.6610 C   0  0  0  0  0  0  0  0  0  0  0  0
    8.9470   35.8600   16.1250 C   0  0  0  0  0  0  0  0  0  0  0  0
    9.9090   37.4770   13.0450 C   0  0  0  0  0  0  0  0  0  0  0  0
    9.5290   36.1570   12.7280 C   0  0  0  0  0  0  0  0  0  0  0  0
    8.8610   35.8910   11.5210 C   0  0  0  0  0  0  0  0  0  0  0  0
    8.5730   36.9450   10.6370 C   0  0  0  0  0  0  0  0  0  0  0  0
    7.9260   36.6960    9.4740 F   0  0  0  0  0  0  0  0  0  0  0  0
    8.9590   38.2600   10.9590 C   0  0  0  0  0  0  0  0  0  0  0  0
    9.6400   38.5590   12.1650 C   0  0  0  0  0  0  0  0  0  0  0  0
   12.3777   38.6637   11.2780 H   0  0  0  0  0  0  0  0  0  0  0  0
   11.6921   37.3914   10.2114 H   0  0  0  0  0  0  0  0  0  0  0  0
   13.4605   37.7064   10.2114 H   0  0  0  0  0  0  0  0  0  0  0  0
   13.0947   39.9408    9.2325 H   0  0  0  0  0  0  0  0  0  0  0  0
   12.3040   38.6976    8.2082 H   0  0  0  0  0  0  0  0  0  0  0  0
   12.5182   41.5330   12.7510 H   0  0  0  0  0  0  0  0  0  0  0  0
   13.2621   40.7659   11.3072 H   0  0  0  0  0  0  0  0  0  0  0  0
   12.9098   42.5273   11.3072 H   0  0  0  0  0  0  0  0  0  0  0  0
   10.2365   41.8894   12.8512 H   0  0  0  0  0  0  0  0  0  0  0  0
    9.1872   41.2008   11.5366 H   0  0  0  0  0  0  0  0  0  0  0  0
   12.0395   36.9484   15.1664 H   0  0  0  0  0  0  0  0  0  0  0  0
   10.7658   37.7875   16.1911 H   0  0  0  0  0  0  0  0  0  0  0  0
   11.6843   34.6635   14.4143 H   0  0  0  0  0  0  0  0  0  0  0  0
   10.4281   32.5211   14.6813 H   0  0  0  0  0  0  0  0  0  0  0  0
    8.2220   32.4965   15.8648 H   0  0  0  0  0  0  0  0  0  0  0  0
    6.4571   33.6500   17.0399 H   0  0  0  0  0  0  0  0  0  0  0  0
    5.4711   35.7556   17.9752 H   0  0  0  0  0  0  0  0  0  0  0  0
    6.7020   37.9254   17.7350 H   0  0  0  0  0  0  0  0  0  0  0  0
    8.9071   37.9973   16.5589 H   0  0  0  0  0  0  0  0  0  0  0  0
    9.7552   35.3364   13.4247 H   0  0  0  0  0  0  0  0  0  0  0  0
    8.5646   34.8621   11.2689 H   0  0  0  0  0  0  0  0  0  0  0  0
    8.7264   39.0748   10.2576 H   0  0  0  0  0  0  0  0  0  0  0  0
  1  2  1  0
  2  3  1  0
  3  4  1  0
  4  5  2  0
  4  6  1  0
  6  7  1  0
  6  8  1  0
  8  9  1  0
  9 10  2  0
 10 11  1  0
 11 12  2  0
 11 13  1  0
 10 14  1  0
 14 15  1  0
 15 16  1  0
 16 17  2  0
 17 18  1  0
 18 19  2  0
 19 20  1  0
 20 21  2  0
 21 22  1  0
 22 23  2  0
 23 24  1  0
 24 25  2  0
 14 26  1  0
 26 27  2  0
 27 28  1  0
 28 29  2  0
 29 30  1  0
 29 31  1  0
 31 32  2  0
 32  9  1  0
 25 16  1  0
 32 26  1  0
 25 20  1  0
  1 33  1  0
  1 34  1  0
  1 35  1  0
  2 36  1  0
  2 37  1  0
  7 38  1  0
  7 39  1  0
  7 40  1  0
  8 41  1  0
  8 42  1  0
 15 43  1  0
 15 44  1  0
 17 45  1  0
 18 46  1  0
 19 47  1  0
 21 48  1  0
 22 49  1  0
 23 50  1  0
 24 51  1  0
 27 52  1  0
 28 53  1  0
 31 54  1  0
M  CHG  1  13  -1
M  END
>  <meeko>  (325) 
{"free_energy": -5.94, "intermolecular_energy": -8.33, "internal_energy": -1.87, "cluster_size": 253, "cluster_id": 8, "rank_in_cluster": 155}

$$$$

     RDKit          3D

 54 57  0  0  0  0  0  0  0  0999 V2000
   11.4770   38.7510   14.5700 C   0  0  0  0  0  0  0  0  0  0  0  0
   11.4200   40.2570   14.8370 C   0  0  0  0  0  0  0  0  0  0  0  0
   11.6150   40.9550   13.6170 O   0  0  0  0  0  0  0  0  0  0  0  0
   12.6590   41.8000   13.4820 C   0  0  0  0  0  0  0  0  0  0  0  0
   13.8130   41.5080   13.8000 O   0  0  0  0  0  0  0  0  0  0  0  0
   12.2370   43.0190   12.9340 N   0  0  0  0  0  0  0  0  0  0  0  0
   12.5700   44.3080   13.5510 C   0  0  0  0  0  0  0  0  0  0  0  0
   11.4100   43.0630   11.7210 C   0  0  0  0  0  0  0  0  0  0  0  0
   11.5160   41.7940   10.9090 C   0  0  0  0  0  0  0  0  0  0  0  0
   10.5040   40.9570   10.4720 C   0  0  0  0  0  0  0  0  0  0  0  0
    9.0230   41.0820   10.6420 C   0  0  0  0  0  0  0  0  0  0  0  0
    8.5690   41.3280   11.7800 O   0  0  0  0  0  0  0  0  0  0  0  0
    8.2550   40.9240    9.6690 O   0  0  0  0  0  1  0  0  0  0  0  0
   11.0820   39.8570    9.8020 N   0  0  0  0  0  0  0  0  0  0  0  0
   10.4070   38.7240    9.1630 C   0  0  0  0  0  0  0  0  0  0  0  0
    9.7930   37.7070   10.1350 C   0  0  0  0  0  0  0  0  0  0  0  0
   10.1480   37.7090   11.5070 C   0  0  0  0  0  0  0  0  0  0  0  0
    9.5880   36.7800   12.4010 C   0  0  0  0  0  0  0  0  0  0  0  0
    8.6640   35.8290   11.9380 C   0  0  0  0  0  0  0  0  0  0  0  0
    8.2970   35.8060   10.5790 C   0  0  0  0  0  0  0  0  0  0  0  0
    7.3680   34.8440   10.1320 C   0  0  0  0  0  0  0  0  0  0  0  0
    6.9870   34.8010    8.7790 C   0  0  0  0  0  0  0  0  0  0  0  0
    7.5350   35.7230    7.8690 C   0  0  0  0  0  0  0  0  0  0  0  0
    8.4640   36.6860    8.3090 C   0  0  0  0  0  0  0  0  0  0  0  0
    8.8590   36.7430    9.6690 C   0  0  0  0  0  0  0  0  0  0  0  0
   12.4640   39.9900    9.8120 C   0  0  0  0  0  0  0  0  0  0  0  0
   13.4910   39.1700    9.3000 C   0  0  0  0  0  0  0  0  0  0  0  0
   14.8340   39.5550    9.4440 C   0  0  0  0  0  0  0  0  0  0  0  0
   15.1460   40.7600   10.0980 C   0  0  0  0  0  0  0  0  0  0  0  0
   16.4390   41.1390   10.2370 F   0  0  0  0  0  0  0  0  0  0  0  0
   14.1160   41.5720   10.6100 C   0  0  0  0  0  0  0  0  0  0  0  0
   12.7540   41.2060   10.4860 C   0  0  0  0  0  0  0  0  0  0  0  0
   11.4975   38.2094   15.5272 H   0  0  0  0  0  0  0  0  0  0  0  0
   10.5897   38.4466   13.9954 H   0  0  0  0  0  0  0  0  0  0  0  0
   12.3847   38.5146   13.9954 H   0  0  0  0  0  0  0  0  0  0  0  0
   10.4381   40.5191   15.2579 H   0  0  0  0  0  0  0  0  0  0  0  0
   12.2080   40.5356   15.5521 H   0  0  0  0  0  0  0  0  0  0  0  0
   12.5441   44.2079   14.6461 H   0  0  0  0  0  0  0  0  0  0  0  0
   13.5773   44.6166   13.2347 H   0  0  0  0  0  0  0  0  0  0  0  0
   11.8382   45.0659   13.2347 H   0  0  0  0  0  0  0  0  0  0  0  0
   10.3598   43.2089   12.0139 H   0  0  0  0  0  0  0  0  0  0  0  0
   11.7719   43.8933   11.0968 H   0  0  0  0  0  0  0  0  0  0  0  0
    9.6007   39.1201    8.5282 H   0  0  0  0  0  0  0  0  0  0  0  0
   11.1798   38.1830    8.5973 H   0  0  0  0  0  0  0  0  0  0  0  0
   10.8727   38.4487   11.8779 H   0  0  0  0  0  0  0  0  0  0  0  0
    9.8734   36.7978   13.4632 H   0  0  0  0  0  0  0  0  0  0  0  0
    8.2267   35.1016   12.6377 H   0  0  0  0  0  0  0  0  0  0  0  0
    6.9394   34.1240   10.8447 H   0  0  0  0  0  0  0  0  0  0  0  0
    6.2627   34.0487    8.4334 H   0  0  0  0  0  0  0  0  0  0  0  0
    7.2372   35.6919    6.8105 H   0  0  0  0  0  0  0  0  0  0  0  0
    8.8876   37.4018    7.5891 H   0  0  0  0  0  0  0  0  0  0  0  0
   13.2402   38.2292    8.7881 H   0  0  0  0  0  0  0  0  0  0  0  0
   15.6376   38.9172    9.0472 H   0  0  0  0  0  0  0  0  0  0  0  0
   14.3755   42.5125   11.1181 H   0  0  0  0  0  0  0  0  0  0  0  0
  1  2  1  0
  2  3  1  0
  3  4  1  0
  4  5  2  0
  4  6  1  0
  6  7  1  0
  6  8  1  0
  8  9  1  0
  9 10  2  0
 10 11  1  0
 11 12  2  0
 11 13  1  0
 10 14  1  0
 14 15  1  0
 15 16  1  0
 16 17  2  0
 17 18  1  0
 18 19  2  0
 19 20  1  0
 20 21  2  0
 21 22  1  0
 22 23  2  0
 23 24  1  0
 24 25  2  0
 14 26  1  0
 26 27  2  0
 27 28  1  0
 28 29  2  0
 29 30  1  0
 29 31  1  0
 31 32  2  0
 32  9  1  0
 25 16  1  0
 32 26  1  0
 25 20  1  0
  1 33  1  0
  1 34  1  0
  1 35  1  0
  2 36  1  0
  2 37  1  0
  7 38  1  0
  7 39  1  0
  7 40  1  0
  8 41  1  0
  8 42  1  0
 15 43  1  0
 15 44  1  0
 17 45  1  0
 18 46  1  0
 19 47  1  0
 21 48  1  0
 22 49  1  0
 23 50  1  0
 24 51  1  0
 27 52  1  0
 28 53  1  0
 31 54  1  0
M  CHG  1  13  -1
M  END
>  <meeko>  (326) 
{"free_energy": -5.13, "intermolecular_energy": -7.51, "internal_energy": -2.15, "cluster_size": 210, "cluster_id": 15, "rank_in_cluster": 185}

$$$$

     RDKit          3D

 54 57  0  0  0  0  0  0  0  0999 V2000
   13.0520   39.8620    8.7730 C   0  0  0  0  0  0  0  0  0  0  0  0
   14.2770   39.2070    9.4170 C   0  0  0  0  0  0  0  0  0  0  0  0
   15.2020   40.2150    9.7930 O   0  0  0  0  0  0  0  0  0  0  0  0
   15.8260   40.1480   10.9890 C   0  0  0  0  0  0  0  0  0  0  0  0
   16.8730   39.5260   11.1740 O   0  0  0  0  0  0  0  0  0  0  0  0
   15.1200   40.8810   11.9520 N   0  0  0  0  0  0  0  0  0  0  0  0
   15.3910   40.7460   13.3880 C   0  0  0  0  0  0  0  0  0  0  0  0
   14.0460   41.8070   11.5700 C   0  0  0  0  0  0  0  0  0  0  0  0
   12.7310   41.4610   12.2270 C   0  0  0  0  0  0  0  0  0  0  0  0
   12.2360   40.2150   12.5720 C   0  0  0  0  0  0  0  0  0  0  0  0
   12.8640   38.8650   12.4280 C   0  0  0  0  0  0  0  0  0  0  0  0
   12.5340   38.1500   11.4580 O   0  0  0  0  0  0  0  0  0  0  0  0
   13.6900   38.4540   13.2720 O   0  0  0  0  0  1  0  0  0  0  0  0
   10.9380   40.3740   13.1040 N   0  0  0  0  0  0  0  0  0  0  0  0
   10.0300   39.3420   13.6120 C   0  0  0  0  0  0  0  0  0  0  0  0
    9.6470   38.2610   12.5910 C   0  0  0  0  0  0  0  0  0  0  0  0
    9.6930   36.8880   12.9380 C   0  0  0  0  0  0  0  0  0  0  0  0
    9.3430   35.8940   12.0070 C   0  0  0  0  0  0  0  0  0  0  0  0
    8.9430   36.2570   10.7100 C   0  0  0  0  0  0  0  0  0  0  0  0
    8.8920   37.6140   10.3420 C   0  0  0  0  0  0  0  0  0  0  0  0
    8.4880   37.9600    9.0350 C   0  0  0  0  0  0  0  0  0  0  0  0
    8.4300   39.3100    8.6450 C   0  0  0  0  0  0  0  0  0  0  0  0
    8.7740   40.3180    9.5620 C   0  0  0  0  0  0  0  0  0  0  0  0
    9.1790   39.9800   10.8680 C   0  0  0  0  0  0  0  0  0  0  0  0
    9.2430   38.6250   11.2780 C   0  0  0  0  0  0  0  0  0  0  0  0
   10.6030   41.7220   13.1000 C   0  0  0  0  0  0  0  0  0  0  0  0
    9.4360   42.4010   13.5050 C   0  0  0  0  0  0  0  0  0  0  0  0
    9.3660   43.8000   13.3970 C   0  0  0  0  0  0  0  0  0  0  0  0
   10.4640   44.5150   12.8860 C   0  0  0  0  0  0  0  0  0  0  0  0
   10.4040   45.8640   12.7830 F   0  0  0  0  0  0  0  0  0  0  0  0
   11.6240   43.8290   12.4800 C   0  0  0  0  0  0  0  0  0  0  0  0
   11.7220   42.4190   12.5700 C   0  0  0  0  0  0  0  0  0  0  0  0
   12.3740   40.2245    9.5597 H   0  0  0  0  0  0  0  0  0  0  0  0
   13.3745   40.7080    8.1483 H   0  0  0  0  0  0  0  0  0  0  0  0
   12.5275   39.1240    8.1483 H   0  0  0  0  0  0  0  0  0  0  0  0
   13.9662   38.6421   10.3082 H   0  0  0  0  0  0  0  0  0  0  0  0
   14.7498   38.5213    8.6985 H   0  0  0  0  0  0  0  0  0  0  0  0
   14.5504   41.1648   13.9607 H   0  0  0  0  0  0  0  0  0  0  0  0
   15.5124   39.6821   13.6398 H   0  0  0  0  0  0  0  0  0  0  0  0
   16.3133   41.2899   13.6398 H   0  0  0  0  0  0  0  0  0  0  0  0
   14.3339   42.8256   11.8693 H   0  0  0  0  0  0  0  0  0  0  0  0
   13.9084   41.7323   10.4812 H   0  0  0  0  0  0  0  0  0  0  0  0
   10.5166   38.8486   14.4662 H   0  0  0  0  0  0  0  0  0  0  0  0
    9.0963   39.8571   13.8820 H   0  0  0  0  0  0  0  0  0  0  0  0
   10.0072   36.5953   13.9507 H   0  0  0  0  0  0  0  0  0  0  0  0
    9.3824   34.8328   12.2940 H   0  0  0  0  0  0  0  0  0  0  0  0
    8.6694   35.4795    9.9816 H   0  0  0  0  0  0  0  0  0  0  0  0
    8.2173   37.1707    8.3183 H   0  0  0  0  0  0  0  0  0  0  0  0
    8.1162   39.5763    7.6249 H   0  0  0  0  0  0  0  0  0  0  0  0
    8.7268   41.3743    9.2588 H   0  0  0  0  0  0  0  0  0  0  0  0
    9.4485   40.7764   11.5773 H   0  0  0  0  0  0  0  0  0  0  0  0
    8.5811   41.8362   13.9051 H   0  0  0  0  0  0  0  0  0  0  0  0
    8.4567   44.3336   13.7106 H   0  0  0  0  0  0  0  0  0  0  0  0
   12.4751   44.4019   12.0832 H   0  0  0  0  0  0  0  0  0  0  0  0
  1  2  1  0
  2  3  1  0
  3  4  1  0
  4  5  2  0
  4  6  1  0
  6  7  1  0
  6  8  1  0
  8  9  1  0
  9 10  2  0
 10 11  1  0
 11 12  2  0
 11 13  1  0
 10 14  1  0
 14 15  1  0
 15 16  1  0
 16 17  2  0
 17 18  1  0
 18 19  2  0
 19 20  1  0
 20 21  2  0
 21 22  1  0
 22 23  2  0
 23 24  1  0
 24 25  2  0
 14 26  1  0
 26 27  2  0
 27 28  1  0
 28 29  2  0
 29 30  1  0
 29 31  1  0
 31 32  2  0
 32  9  1  0
 25 16  1  0
 32 26  1  0
 25 20  1  0
  1 33  1  0
  1 34  1  0
  1 35  1  0
  2 36  1  0
  2 37  1  0
  7 38  1  0
  7 39  1  0
  7 40  1  0
  8 41  1  0
  8 42  1  0
 15 43  1  0
 15 44  1  0
 17 45  1  0
 18 46  1  0
 19 47  1  0
 21 48  1  0
 22 49  1  0
 23 50  1  0
 24 51  1  0
 27 52  1  0
 28 53  1  0
 31 54  1  0
M  CHG  1  13  -1
M  END
>  <meeko>  (327) 
{"free_energy": -3.76, "intermolecular_energy": -6.14, "internal_energy": -2.47, "cluster_size": 417, "cluster_id": 2, "rank_in_cluster": 417}

$$$$

     RDKit          3D

 54 57  0  0  0  0  0  0  0  0999 V2000
   10.2450   42.0870   20.7370 C   0  0  0  0  0  0  0  0  0  0  0  0
   11.2430   41.1480   20.0540 C   0  0  0  0  0  0  0  0  0  0  0  0
   10.7990   40.8730   18.7360 O   0  0  0  0  0  0  0  0  0  0  0  0
   11.0140   39.6570   18.1890 C   0  0  0  0  0  0  0  0  0  0  0  0
   11.3240   38.6630   18.8480 O   0  0  0  0  0  0  0  0  0  0  0  0
   10.8300   39.7020   16.8010 N   0  0  0  0  0  0  0  0  0  0  0  0
   11.7370   40.4430   15.9170 C   0  0  0  0  0  0  0  0  0  0  0  0
    9.6920   39.0280   16.1620 C   0  0  0  0  0  0  0  0  0  0  0  0
    9.1490   37.8990   17.0050 C   0  0  0  0  0  0  0  0  0  0  0  0
    8.5210   37.9600   18.2360 C   0  0  0  0  0  0  0  0  0  0  0  0
    8.1690   39.1530   19.0690 C   0  0  0  0  0  0  0  0  0  0  0  0
    8.1320   40.2760   18.5230 O   0  0  0  0  0  0  0  0  0  0  0  0
    7.9350   39.0290   20.2910 O   0  0  0  0  0  1  0  0  0  0  0  0
    8.2440   36.6470   18.6710 N   0  0  0  0  0  0  0  0  0  0  0  0
    7.5820   36.2170   19.9070 C   0  0  0  0  0  0  0  0  0  0  0  0
    6.1530   36.7450   20.0900 C   0  0  0  0  0  0  0  0  0  0  0  0
    5.6940   37.1710   21.3620 C   0  0  0  0  0  0  0  0  0  0  0  0
    4.3860   37.6560   21.5350 C   0  0  0  0  0  0  0  0  0  0  0  0
    3.5110   37.7220   20.4380 C   0  0  0  0  0  0  0  0  0  0  0  0
    3.9430   37.3030   19.1650 C   0  0  0  0  0  0  0  0  0  0  0  0
    3.0510   37.3760   18.0760 C   0  0  0  0  0  0  0  0  0  0  0  0
    3.4600   36.9630   16.7950 C   0  0  0  0  0  0  0  0  0  0  0  0
    4.7650   36.4770   16.6020 C   0  0  0  0  0  0  0  0  0  0  0  0
    5.6610   36.4010   17.6860 C   0  0  0  0  0  0  0  0  0  0  0  0
    5.2650   36.8120   18.9820 C   0  0  0  0  0  0  0  0  0  0  0  0
    8.6950   35.7440   17.7170 C   0  0  0  0  0  0  0  0  0  0  0  0
    8.6750   34.3340   17.6740 C   0  0  0  0  0  0  0  0  0  0  0  0
    9.2030   33.6600   16.5600 C   0  0  0  0  0  0  0  0  0  0  0  0
    9.7470   34.3970   15.4940 C   0  0  0  0  0  0  0  0  0  0  0  0
   10.2540   33.7530   14.4160 F   0  0  0  0  0  0  0  0  0  0  0  0
    9.7670   35.8040   15.5460 C   0  0  0  0  0  0  0  0  0  0  0  0
    9.2490   36.5110   16.6580 C   0  0  0  0  0  0  0  0  0  0  0  0
   10.3429   41.9949   21.8287 H   0  0  0  0  0  0  0  0  0  0  0  0
   10.4530   43.1245   20.4365 H   0  0  0  0  0  0  0  0  0  0  0  0
    9.2221   41.8163   20.4365 H   0  0  0  0  0  0  0  0  0  0  0  0
   12.2323   41.6274   20.0162 H   0  0  0  0  0  0  0  0  0  0  0  0
   11.3151   40.2091   20.6226 H   0  0  0  0  0  0  0  0  0  0  0  0
   12.4475   41.0234   16.5239 H   0  0  0  0  0  0  0  0  0  0  0  0
   12.2900   39.7350   15.2822 H   0  0  0  0  0  0  0  0  0  0  0  0
   11.1535   41.1261   15.2822 H   0  0  0  0  0  0  0  0  0  0  0  0
    8.8912   39.7641   15.9981 H   0  0  0  0  0  0  0  0  0  0  0  0
   10.0441   38.5999   15.2119 H   0  0  0  0  0  0  0  0  0  0  0  0
    7.5434   35.1177   19.9097 H   0  0  0  0  0  0  0  0  0  0  0  0
    8.1738   36.6331   20.7356 H   0  0  0  0  0  0  0  0  0  0  0  0
    6.3719   37.1212   22.2269 H   0  0  0  0  0  0  0  0  0  0  0  0
    4.0477   37.9837   22.5291 H   0  0  0  0  0  0  0  0  0  0  0  0
    2.4874   38.1014   20.5736 H   0  0  0  0  0  0  0  0  0  0  0  0
    2.0306   37.7576   18.2285 H   0  0  0  0  0  0  0  0  0  0  0  0
    2.7613   37.0201   15.9474 H   0  0  0  0  0  0  0  0  0  0  0  0
    5.0874   36.1550   15.6008 H   0  0  0  0  0  0  0  0  0  0  0  0
    6.6795   36.0182   17.5242 H   0  0  0  0  0  0  0  0  0  0  0  0
    8.2468   33.7633   18.5112 H   0  0  0  0  0  0  0  0  0  0  0  0
    9.1907   32.5607   16.5223 H   0  0  0  0  0  0  0  0  0  0  0  0
   10.1949   36.3668   14.7033 H   0  0  0  0  0  0  0  0  0  0  0  0
  1  2  1  0
  2  3  1  0
  3  4  1  0
  4  5  2  0
  4  6  1  0
  6  7  1  0
  6  8  1  0
  8  9  1  0
  9 10  2  0
 10 11  1  0
 11 12  2  0
 11 13  1  0
 10 14  1  0
 14 15  1  0
 15 16  1  0
 16 17  2  0
 17 18  1  0
 18 19  2  0
 19 20  1  0
 20 21  2  0
 21 22  1  0
 22 23  2  0
 23 24  1  0
 24 25  2  0
 14 26  1  0
 26 27  2  0
 27 28  1  0
 28 29  2  0
 29 30  1  0
 29 31  1  0
 31 32  2  0
 32  9  1  0
 25 16  1  0
 32 26  1  0
 25 20  1  0
  1 33  1  0
  1 34  1  0
  1 35  1  0
  2 36  1  0
  2 37  1  0
  7 38  1  0
  7 39  1  0
  7 40  1  0
  8 41  1  0
  8 42  1  0
 15 43  1  0
 15 44  1  0
 17 45  1  0
 18 46  1  0
 19 47  1  0
 21 48  1  0
 22 49  1  0
 23 50  1  0
 24 51  1  0
 27 52  1  0
 28 53  1  0
 31 54  1  0
M  CHG  1  13  -1
M  END
>  <meeko>  (328) 
{"free_energy": -5.09, "intermolecular_energy": -7.48, "internal_energy": -1.76, "cluster_size": 136, "cluster_id": 17, "rank_in_cluster": 125}

$$$$

     RDKit          3D

 54 57  0  0  0  0  0  0  0  0999 V2000
    9.9150   38.3460   16.0720 C   0  0  0  0  0  0  0  0  0  0  0  0
    9.4160   37.6420   14.8080 C   0  0  0  0  0  0  0  0  0  0  0  0
   10.1210   36.4220   14.6430 O   0  0  0  0  0  0  0  0  0  0  0  0
    9.5950   35.4340   13.8870 C   0  0  0  0  0  0  0  0  0  0  0  0
    9.3130   34.3200   14.3300 O   0  0  0  0  0  0  0  0  0  0  0  0
    9.4220   35.8660   12.5660 N   0  0  0  0  0  0  0  0  0  0  0  0
    8.1240   35.7950   11.8860 C   0  0  0  0  0  0  0  0  0  0  0  0
   10.5490   36.3880   11.7810 C   0  0  0  0  0  0  0  0  0  0  0  0
   10.2390   37.7280   11.1570 C   0  0  0  0  0  0  0  0  0  0  0  0
   10.6680   38.9850   11.5460 C   0  0  0  0  0  0  0  0  0  0  0  0
   11.5810   39.3780   12.6640 C   0  0  0  0  0  0  0  0  0  0  0  0
   11.0830   39.8430   13.7110 O   0  0  0  0  0  0  0  0  0  0  0  0
   12.8200   39.2600   12.5450 O   0  0  0  0  0  1  0  0  0  0  0  0
   10.0720   39.9490   10.7040 N   0  0  0  0  0  0  0  0  0  0  0  0
   10.2370   41.4050   10.7280 C   0  0  0  0  0  0  0  0  0  0  0  0
    9.2480   42.1510   11.6340 C   0  0  0  0  0  0  0  0  0  0  0  0
    7.8660   42.1950   11.3190 C   0  0  0  0  0  0  0  0  0  0  0  0
    6.9570   42.8770   12.1460 C   0  0  0  0  0  0  0  0  0  0  0  0
    7.4120   43.5300   13.3020 C   0  0  0  0  0  0  0  0  0  0  0  0
    8.7800   43.5020   13.6360 C   0  0  0  0  0  0  0  0  0  0  0  0
    9.2200   44.1630   14.8010 C   0  0  0  0  0  0  0  0  0  0  0  0
   10.5810   44.1490   15.1530 C   0  0  0  0  0  0  0  0  0  0  0  0
   11.5060   43.4720   14.3400 C   0  0  0  0  0  0  0  0  0  0  0  0
   11.0740   42.8100   13.1740 C   0  0  0  0  0  0  0  0  0  0  0  0
    9.7060   42.8140   12.8050 C   0  0  0  0  0  0  0  0  0  0  0  0
    9.2620   39.3080    9.7760 C   0  0  0  0  0  0  0  0  0  0  0  0
    8.4470   39.8050    8.7380 C   0  0  0  0  0  0  0  0  0  0  0  0
    7.7250   38.9140    7.9260 C   0  0  0  0  0  0  0  0  0  0  0  0
    7.8210   37.5300    8.1540 C   0  0  0  0  0  0  0  0  0  0  0  0
    7.1300   36.6660    7.3730 F   0  0  0  0  0  0  0  0  0  0  0  0
    8.6340   37.0420    9.1950 C   0  0  0  0  0  0  0  0  0  0  0  0
    9.3680   37.9150   10.0340 C   0  0  0  0  0  0  0  0  0  0  0  0
    9.5392   37.8159   16.9596 H   0  0  0  0  0  0  0  0  0  0  0  0
   11.0149   38.3447   16.0825 H   0  0  0  0  0  0  0  0  0  0  0  0
    9.5495   39.3834   16.0825 H   0  0  0  0  0  0  0  0  0  0  0  0
    8.3399   37.4349   14.9030 H   0  0  0  0  0  0  0  0  0  0  0  0
    9.5865   38.2879   13.9341 H   0  0  0  0  0  0  0  0  0  0  0  0
    7.3196   35.7510   12.6350 H   0  0  0  0  0  0  0  0  0  0  0  0
    7.9905   36.6872   11.2566 H   0  0  0  0  0  0  0  0  0  0  0  0
    8.0886   34.8936   11.2566 H   0  0  0  0  0  0  0  0  0  0  0  0
   11.4204   36.4989   12.4431 H   0  0  0  0  0  0  0  0  0  0  0  0
   10.7517   35.6760   10.9674 H   0  0  0  0  0  0  0  0  0  0  0  0
   11.2559   41.6280   11.0773 H   0  0  0  0  0  0  0  0  0  0  0  0
   10.0424   41.7551    9.7035 H   0  0  0  0  0  0  0  0  0  0  0  0
    7.5001   41.6879   10.4141 H   0  0  0  0  0  0  0  0  0  0  0  0
    5.8881   42.8990   11.8870 H   0  0  0  0  0  0  0  0  0  0  0  0
    6.6995   44.0642   13.9478 H   0  0  0  0  0  0  0  0  0  0  0  0
    8.4952   44.6920   15.4373 H   0  0  0  0  0  0  0  0  0  0  0  0
   10.9209   44.6665   16.0622 H   0  0  0  0  0  0  0  0  0  0  0  0
   12.5710   43.4590   14.6151 H   0  0  0  0  0  0  0  0  0  0  0  0
   11.8063   42.2845   12.5434 H   0  0  0  0  0  0  0  0  0  0  0  0
    8.3766   40.8889    8.5642 H   0  0  0  0  0  0  0  0  0  0  0  0
    7.0876   39.2976    7.1157 H   0  0  0  0  0  0  0  0  0  0  0  0
    8.7005   35.9565    9.3604 H   0  0  0  0  0  0  0  0  0  0  0  0
  1  2  1  0
  2  3  1  0
  3  4  1  0
  4  5  2  0
  4  6  1  0
  6  7  1  0
  6  8  1  0
  8  9  1  0
  9 10  2  0
 10 11  1  0
 11 12  2  0
 11 13  1  0
 10 14  1  0
 14 15  1  0
 15 16  1  0
 16 17  2  0
 17 18  1  0
 18 19  2  0
 19 20  1  0
 20 21  2  0
 21 22  1  0
 22 23  2  0
 23 24  1  0
 24 25  2  0
 14 26  1  0
 26 27  2  0
 27 28  1  0
 28 29  2  0
 29 30  1  0
 29 31  1  0
 31 32  2  0
 32  9  1  0
 25 16  1  0
 32 26  1  0
 25 20  1  0
  1 33  1  0
  1 34  1  0
  1 35  1  0
  2 36  1  0
  2 37  1  0
  7 38  1  0
  7 39  1  0
  7 40  1  0
  8 41  1  0
  8 42  1  0
 15 43  1  0
 15 44  1  0
 17 45  1  0
 18 46  1  0
 19 47  1  0
 21 48  1  0
 22 49  1  0
 23 50  1  0
 24 51  1  0
 27 52  1  0
 28 53  1  0
 31 54  1  0
M  CHG  1  13  -1
M  END
>  <meeko>  (329) 
{"free_energy": -4.93, "intermolecular_energy": -7.32, "internal_energy": -1.98, "cluster_size": 318, "cluster_id": 5, "rank_in_cluster": 301}

$$$$

     RDKit          3D

 54 57  0  0  0  0  0  0  0  0999 V2000
    9.6430   41.4290   10.2740 C   0  0  0  0  0  0  0  0  0  0  0  0
    8.5090   40.9770   11.1970 C   0  0  0  0  0  0  0  0  0  0  0  0
    8.7110   41.5270   12.4890 O   0  0  0  0  0  0  0  0  0  0  0  0
    8.3320   42.7960   12.7510 C   0  0  0  0  0  0  0  0  0  0  0  0
    7.2060   43.2320   12.5030 O   0  0  0  0  0  0  0  0  0  0  0  0
    9.3830   43.5120   13.3370 N   0  0  0  0  0  0  0  0  0  0  0  0
    9.7810   44.8430   12.8620 C   0  0  0  0  0  0  0  0  0  0  0  0
   10.1650   42.9490   14.4450 C   0  0  0  0  0  0  0  0  0  0  0  0
   10.8540   41.6600   14.0620 C   0  0  0  0  0  0  0  0  0  0  0  0
   10.7640   40.4170   14.6650 C   0  0  0  0  0  0  0  0  0  0  0  0
    9.9420   39.9820   15.8360 C   0  0  0  0  0  0  0  0  0  0  0  0
    9.7380   40.7970   16.7630 O   0  0  0  0  0  0  0  0  0  0  0  0
    9.4830   38.8200   15.8960 O   0  0  0  0  0  1  0  0  0  0  0  0
   11.6350   39.5270   14.0010 N   0  0  0  0  0  0  0  0  0  0  0  0
   11.8700   38.1070   14.2780 C   0  0  0  0  0  0  0  0  0  0  0  0
   10.6950   37.1800   13.9370 C   0  0  0  0  0  0  0  0  0  0  0  0
   10.1370   36.3240   14.9190 C   0  0  0  0  0  0  0  0  0  0  0  0
    9.0610   35.4740   14.6110 C   0  0  0  0  0  0  0  0  0  0  0  0
    8.5250   35.4630   13.3130 C   0  0  0  0  0  0  0  0  0  0  0  0
    9.0630   36.3020   12.3200 C   0  0  0  0  0  0  0  0  0  0  0  0
    8.5120   36.2770   11.0220 C   0  0  0  0  0  0  0  0  0  0  0  0
    9.0340   37.1070   10.0140 C   0  0  0  0  0  0  0  0  0  0  0  0
   10.1100   37.9650   10.3020 C   0  0  0  0  0  0  0  0  0  0  0  0
   10.6650   37.9950   11.5960 C   0  0  0  0  0  0  0  0  0  0  0  0
   10.1510   37.1660   12.6240 C   0  0  0  0  0  0  0  0  0  0  0  0
   12.2830   40.2010   12.9740 C   0  0  0  0  0  0  0  0  0  0  0  0
   13.2480   39.7790   12.0350 C   0  0  0  0  0  0  0  0  0  0  0  0
   13.7380   40.6850   11.0800 C   0  0  0  0  0  0  0  0  0  0  0  0
   13.2610   42.0070   11.0640 C   0  0  0  0  0  0  0  0  0  0  0  0
   13.7260   42.8840   10.1430 F   0  0  0  0  0  0  0  0  0  0  0  0
   12.3000   42.4210   12.0070 C   0  0  0  0  0  0  0  0  0  0  0  0
   11.7920   41.5340   12.9860 C   0  0  0  0  0  0  0  0  0  0  0  0
   10.4957   41.7689   10.8801 H   0  0  0  0  0  0  0  0  0  0  0  0
    9.9567   40.5872    9.6392 H   0  0  0  0  0  0  0  0  0  0  0  0
    9.2916   42.2558    9.6392 H   0  0  0  0  0  0  0  0  0  0  0  0
    7.5464   41.3260   10.7951 H   0  0  0  0  0  0  0  0  0  0  0  0
    8.4999   39.8789   11.2604 H   0  0  0  0  0  0  0  0  0  0  0  0
    9.9765   45.4969   13.7247 H   0  0  0  0  0  0  0  0  0  0  0  0
   10.6928   44.7574   12.2527 H   0  0  0  0  0  0  0  0  0  0  0  0
    8.9718   45.2720   12.2527 H   0  0  0  0  0  0  0  0  0  0  0  0
   10.9276   43.6815   14.7481 H   0  0  0  0  0  0  0  0  0  0  0  0
    9.4710   42.7282   15.2693 H   0  0  0  0  0  0  0  0  0  0  0  0
   12.7421   37.7838   13.6906 H   0  0  0  0  0  0  0  0  0  0  0  0
   12.0229   38.0253   15.3643 H   0  0  0  0  0  0  0  0  0  0  0  0
   10.5523   36.3249   15.9376 H   0  0  0  0  0  0  0  0  0  0  0  0
    8.6389   34.8176   15.3862 H   0  0  0  0  0  0  0  0  0  0  0  0
    7.6831   34.7973   13.0723 H   0  0  0  0  0  0  0  0  0  0  0  0
    7.6703   35.6054   10.7972 H   0  0  0  0  0  0  0  0  0  0  0  0
    8.6016   37.0851    9.0028 H   0  0  0  0  0  0  0  0  0  0  0  0
   10.5195   38.6146    9.5144 H   0  0  0  0  0  0  0  0  0  0  0  0
   11.5069   38.6695   11.8112 H   0  0  0  0  0  0  0  0  0  0  0  0
   13.6159   38.7425   12.0508 H   0  0  0  0  0  0  0  0  0  0  0  0
   14.4921   40.3612   10.3475 H   0  0  0  0  0  0  0  0  0  0  0  0
   11.9356   43.4586   11.9819 H   0  0  0  0  0  0  0  0  0  0  0  0
  1  2  1  0
  2  3  1  0
  3  4  1  0
  4  5  2  0
  4  6  1  0
  6  7  1  0
  6  8  1  0
  8  9  1  0
  9 10  2  0
 10 11  1  0
 11 12  2  0
 11 13  1  0
 10 14  1  0
 14 15  1  0
 15 16  1  0
 16 17  2  0
 17 18  1  0
 18 19  2  0
 19 20  1  0
 20 21  2  0
 21 22  1  0
 22 23  2  0
 23 24  1  0
 24 25  2  0
 14 26  1  0
 26 27  2  0
 27 28  1  0
 28 29  2  0
 29 30  1  0
 29 31  1  0
 31 32  2  0
 32  9  1  0
 25 16  1  0
 32 26  1  0
 25 20  1  0
  1 33  1  0
  1 34  1  0
  1 35  1  0
  2 36  1  0
  2 37  1  0
  7 38  1  0
  7 39  1  0
  7 40  1  0
  8 41  1  0
  8 42  1  0
 15 43  1  0
 15 44  1  0
 17 45  1  0
 18 46  1  0
 19 47  1  0
 21 48  1  0
 22 49  1  0
 23 50  1  0
 24 51  1  0
 27 52  1  0
 28 53  1  0
 31 54  1  0
M  CHG  1  13  -1
M  END
>  <meeko>  (330) 
{"free_energy": -4.46, "intermolecular_energy": -6.85, "internal_energy": -2.39, "cluster_size": 7, "cluster_id": 190, "rank_in_cluster": 5}

$$$$

     RDKit          3D

 54 57  0  0  0  0  0  0  0  0999 V2000
    6.4530   37.2710   19.9000 C   0  0  0  0  0  0  0  0  0  0  0  0
    6.5840   37.8180   18.4770 C   0  0  0  0  0  0  0  0  0  0  0  0
    7.5640   38.8430   18.4580 O   0  0  0  0  0  0  0  0  0  0  0  0
    8.7050   38.6750   17.7560 C   0  0  0  0  0  0  0  0  0  0  0  0
    9.2000   39.5530   17.0470 O   0  0  0  0  0  0  0  0  0  0  0  0
    9.2230   37.3900   17.9600 N   0  0  0  0  0  0  0  0  0  0  0  0
    9.8220   36.9840   19.2360 C   0  0  0  0  0  0  0  0  0  0  0  0
    9.2180   36.3870   16.8870 C   0  0  0  0  0  0  0  0  0  0  0  0
    9.9790   36.8500   15.6670 C   0  0  0  0  0  0  0  0  0  0  0  0
    9.7860   36.5030   14.3410 C   0  0  0  0  0  0  0  0  0  0  0  0
    8.7570   35.6050   13.7300 C   0  0  0  0  0  0  0  0  0  0  0  0
    8.1020   36.0230   12.7510 O   0  0  0  0  0  0  0  0  0  0  0  0
    8.5430   34.4680   14.2030 O   0  0  0  0  0  1  0  0  0  0  0  0
   10.7780   37.1320   13.5580 N   0  0  0  0  0  0  0  0  0  0  0  0
   10.9680   37.0680   12.1060 C   0  0  0  0  0  0  0  0  0  0  0  0
    9.9350   37.8520   11.2860 C   0  0  0  0  0  0  0  0  0  0  0  0
    9.7380   39.2390   11.5010 C   0  0  0  0  0  0  0  0  0  0  0  0
    8.7930   39.9600   10.7510 C   0  0  0  0  0  0  0  0  0  0  0  0
    8.0250   39.3070    9.7730 C   0  0  0  0  0  0  0  0  0  0  0  0
    8.2010   37.9300    9.5420 C   0  0  0  0  0  0  0  0  0  0  0  0
    7.4210   37.2900    8.5570 C   0  0  0  0  0  0  0  0  0  0  0  0
    7.5790   35.9150    8.3090 C   0  0  0  0  0  0  0  0  0  0  0  0
    8.5200   35.1760    9.0480 C   0  0  0  0  0  0  0  0  0  0  0  0
    9.3020   35.8080   10.0340 C   0  0  0  0  0  0  0  0  0  0  0  0
    9.1550   37.1930   10.2960 C   0  0  0  0  0  0  0  0  0  0  0  0
   11.6050   37.8820   14.3840 C   0  0  0  0  0  0  0  0  0  0  0  0
   12.7370   38.6770   14.1080 C   0  0  0  0  0  0  0  0  0  0  0  0
   13.3940   39.3470   15.1530 C   0  0  0  0  0  0  0  0  0  0  0  0
   12.9170   39.2220   16.4690 C   0  0  0  0  0  0  0  0  0  0  0  0
   13.5440   39.8690   17.4810 F   0  0  0  0  0  0  0  0  0  0  0  0
   11.7880   38.4240   16.7370 C   0  0  0  0  0  0  0  0  0  0  0  0
   11.1090   37.7310   15.7060 C   0  0  0  0  0  0  0  0  0  0  0  0
    6.6462   38.0779   20.6222 H   0  0  0  0  0  0  0  0  0  0  0  0
    5.4358   36.8801   20.0504 H   0  0  0  0  0  0  0  0  0  0  0  0
    7.1827   36.4618   20.0504 H   0  0  0  0  0  0  0  0  0  0  0  0
    6.8868   37.0073   17.7980 H   0  0  0  0  0  0  0  0  0  0  0  0
    5.6169   38.2263   18.1483 H   0  0  0  0  0  0  0  0  0  0  0  0
    9.2250   37.3887   20.0665 H   0  0  0  0  0  0  0  0  0  0  0  0
    9.8412   35.8860   19.2992 H   0  0  0  0  0  0  0  0  0  0  0  0
   10.8490   37.3729   19.2992 H   0  0  0  0  0  0  0  0  0  0  0  0
    9.6816   35.4633   17.2638 H   0  0  0  0  0  0  0  0  0  0  0  0
    8.1728   36.2185   16.5882 H   0  0  0  0  0  0  0  0  0  0  0  0
   11.9654   37.4695   11.8735 H   0  0  0  0  0  0  0  0  0  0  0  0
   10.8487   36.0113   11.8247 H   0  0  0  0  0  0  0  0  0  0  0  0
   10.3334   39.7588   12.2660 H   0  0  0  0  0  0  0  0  0  0  0  0
    8.6548   41.0365   10.9301 H   0  0  0  0  0  0  0  0  0  0  0  0
    7.2853   39.8724    9.1871 H   0  0  0  0  0  0  0  0  0  0  0  0
    6.6853   37.8692    7.9798 H   0  0  0  0  0  0  0  0  0  0  0  0
    6.9688   35.4192    7.5397 H   0  0  0  0  0  0  0  0  0  0  0  0
    8.6457   34.1004    8.8551 H   0  0  0  0  0  0  0  0  0  0  0  0
   10.0346   35.2205   10.6068 H   0  0  0  0  0  0  0  0  0  0  0  0
   13.1047   38.7721   13.0757 H   0  0  0  0  0  0  0  0  0  0  0  0
   14.2780   39.9668   14.9423 H   0  0  0  0  0  0  0  0  0  0  0  0
   11.4252   38.3371   17.7718 H   0  0  0  0  0  0  0  0  0  0  0  0
  1  2  1  0
  2  3  1  0
  3  4  1  0
  4  5  2  0
  4  6  1  0
  6  7  1  0
  6  8  1  0
  8  9  1  0
  9 10  2  0
 10 11  1  0
 11 12  2  0
 11 13  1  0
 10 14  1  0
 14 15  1  0
 15 16  1  0
 16 17  2  0
 17 18  1  0
 18 19  2  0
 19 20  1  0
 20 21  2  0
 21 22  1  0
 22 23  2  0
 23 24  1  0
 24 25  2  0
 14 26  1  0
 26 27  2  0
 27 28  1  0
 28 29  2  0
 29 30  1  0
 29 31  1  0
 31 32  2  0
 32  9  1  0
 25 16  1  0
 32 26  1  0
 25 20  1  0
  1 33  1  0
  1 34  1  0
  1 35  1  0
  2 36  1  0
  2 37  1  0
  7 38  1  0
  7 39  1  0
  7 40  1  0
  8 41  1  0
  8 42  1  0
 15 43  1  0
 15 44  1  0
 17 45  1  0
 18 46  1  0
 19 47  1  0
 21 48  1  0
 22 49  1  0
 23 50  1  0
 24 51  1  0
 27 52  1  0
 28 53  1  0
 31 54  1  0
M  CHG  1  13  -1
M  END
>  <meeko>  (331) 
{"free_energy": -6.41, "intermolecular_energy": -8.8, "internal_energy": -1.77, "cluster_size": 163, "cluster_id": 4, "rank_in_cluster": 79}

$$$$

     RDKit          3D

 54 57  0  0  0  0  0  0  0  0999 V2000
    8.0390   35.5680    9.9530 C   0  0  0  0  0  0  0  0  0  0  0  0
    8.4300   36.7520    9.0650 C   0  0  0  0  0  0  0  0  0  0  0  0
    9.8060   37.0430    9.2550 O   0  0  0  0  0  0  0  0  0  0  0  0
   10.3780   36.8490   10.4620 C   0  0  0  0  0  0  0  0  0  0  0  0
   11.0270   35.8430   10.7510 O   0  0  0  0  0  0  0  0  0  0  0  0
   10.1300   37.9410   11.3040 N   0  0  0  0  0  0  0  0  0  0  0  0
   10.7750   39.2430   11.1050 C   0  0  0  0  0  0  0  0  0  0  0  0
    9.2250   37.8250   12.4560 C   0  0  0  0  0  0  0  0  0  0  0  0
    9.9700   37.5740   13.7460 C   0  0  0  0  0  0  0  0  0  0  0  0
   10.8220   38.4200   14.4340 C   0  0  0  0  0  0  0  0  0  0  0  0
   11.2220   39.8280   14.1240 C   0  0  0  0  0  0  0  0  0  0  0  0
   10.4830   40.7600   14.5080 O   0  0  0  0  0  0  0  0  0  0  0  0
   12.2660   40.0650   13.4780 O   0  0  0  0  0  1  0  0  0  0  0  0
   11.3370   37.7340   15.5540 N   0  0  0  0  0  0  0  0  0  0  0  0
   12.2650   38.2260   16.5760 C   0  0  0  0  0  0  0  0  0  0  0  0
   13.7420   38.2220   16.1610 C   0  0  0  0  0  0  0  0  0  0  0  0
   14.2750   39.2650   15.3620 C   0  0  0  0  0  0  0  0  0  0  0  0
   15.6270   39.2660   14.9800 C   0  0  0  0  0  0  0  0  0  0  0  0
   16.4730   38.2210   15.3870 C   0  0  0  0  0  0  0  0  0  0  0  0
   15.9670   37.1730   16.1790 C   0  0  0  0  0  0  0  0  0  0  0  0
   16.8300   36.1320   16.5780 C   0  0  0  0  0  0  0  0  0  0  0  0
   16.3470   35.0740   17.3690 C   0  0  0  0  0  0  0  0  0  0  0  0
   14.9970   35.0560   17.7630 C   0  0  0  0  0  0  0  0  0  0  0  0
   14.1300   36.0920   17.3670 C   0  0  0  0  0  0  0  0  0  0  0  0
   14.6000   37.1650   16.5710 C   0  0  0  0  0  0  0  0  0  0  0  0
   10.8140   36.4470   15.5830 C   0  0  0  0  0  0  0  0  0  0  0  0
   11.0160   35.3710   16.4710 C   0  0  0  0  0  0  0  0  0  0  0  0
   10.3400   34.1560   16.2660 C   0  0  0  0  0  0  0  0  0  0  0  0
    9.4640   34.0230   15.1750 C   0  0  0  0  0  0  0  0  0  0  0  0
    8.8060   32.8570   14.9740 F   0  0  0  0  0  0  0  0  0  0  0  0
    9.2700   35.1020   14.2900 C   0  0  0  0  0  0  0  0  0  0  0  0
    9.9420   36.3350   14.4670 C   0  0  0  0  0  0  0  0  0  0  0  0
    8.1340   35.8557   11.0105 H   0  0  0  0  0  0  0  0  0  0  0  0
    6.9982   35.2804    9.7433 H   0  0  0  0  0  0  0  0  0  0  0  0
    8.7039   34.7171    9.7433 H   0  0  0  0  0  0  0  0  0  0  0  0
    8.2502   36.4962    8.0104 H   0  0  0  0  0  0  0  0  0  0  0  0
    7.8257   37.6310    9.3336 H   0  0  0  0  0  0  0  0  0  0  0  0
   10.9987   39.6946   12.0827 H   0  0  0  0  0  0  0  0  0  0  0  0
   11.7098   39.1068   10.5415 H   0  0  0  0  0  0  0  0  0  0  0  0
   10.1002   39.9042   10.5415 H   0  0  0  0  0  0  0  0  0  0  0  0
    8.6541   38.7602   12.5532 H   0  0  0  0  0  0  0  0  0  0  0  0
    8.5610   36.9663   12.2778 H   0  0  0  0  0  0  0  0  0  0  0  0
   11.9826   39.2595   16.8253 H   0  0  0  0  0  0  0  0  0  0  0  0
   12.1814   37.5351   17.4279 H   0  0  0  0  0  0  0  0  0  0  0  0
   13.6197   40.0862   15.0361 H   0  0  0  0  0  0  0  0  0  0  0  0
   16.0232   40.0853   14.3621 H   0  0  0  0  0  0  0  0  0  0  0  0
   17.5312   38.2216   15.0867 H   0  0  0  0  0  0  0  0  0  0  0  0
   17.8857   36.1473   16.2693 H   0  0  0  0  0  0  0  0  0  0  0  0
   17.0230   34.2633   17.6785 H   0  0  0  0  0  0  0  0  0  0  0  0
   14.6175   34.2300   18.3824 H   0  0  0  0  0  0  0  0  0  0  0  0
   13.0756   36.0679   17.6794 H   0  0  0  0  0  0  0  0  0  0  0  0
   11.7021   35.4822   17.3236 H   0  0  0  0  0  0  0  0  0  0  0  0
   10.4957   33.3135   16.9559 H   0  0  0  0  0  0  0  0  0  0  0  0
    8.5800   34.9833   13.4415 H   0  0  0  0  0  0  0  0  0  0  0  0
  1  2  1  0
  2  3  1  0
  3  4  1  0
  4  5  2  0
  4  6  1  0
  6  7  1  0
  6  8  1  0
  8  9  1  0
  9 10  2  0
 10 11  1  0
 11 12  2  0
 11 13  1  0
 10 14  1  0
 14 15  1  0
 15 16  1  0
 16 17  2  0
 17 18  1  0
 18 19  2  0
 19 20  1  0
 20 21  2  0
 21 22  1  0
 22 23  2  0
 23 24  1  0
 24 25  2  0
 14 26  1  0
 26 27  2  0
 27 28  1  0
 28 29  2  0
 29 30  1  0
 29 31  1  0
 31 32  2  0
 32  9  1  0
 25 16  1  0
 32 26  1  0
 25 20  1  0
  1 33  1  0
  1 34  1  0
  1 35  1  0
  2 36  1  0
  2 37  1  0
  7 38  1  0
  7 39  1  0
  7 40  1  0
  8 41  1  0
  8 42  1  0
 15 43  1  0
 15 44  1  0
 17 45  1  0
 18 46  1  0
 19 47  1  0
 21 48  1  0
 22 49  1  0
 23 50  1  0
 24 51  1  0
 27 52  1  0
 28 53  1  0
 31 54  1  0
M  CHG  1  13  -1
M  END
>  <meeko>  (332) 
{"free_energy": -4.38, "intermolecular_energy": -6.77, "internal_energy": -1.91, "cluster_size": 24, "cluster_id": 143, "rank_in_cluster": 15}

$$$$

     RDKit          3D

 54 57  0  0  0  0  0  0  0  0999 V2000
   13.0860   36.5650   16.6670 C   0  0  0  0  0  0  0  0  0  0  0  0
   13.1500   37.9540   17.3070 C   0  0  0  0  0  0  0  0  0  0  0  0
   12.0340   38.1250   18.1650 O   0  0  0  0  0  0  0  0  0  0  0  0
   11.4670   39.3430   18.3030 C   0  0  0  0  0  0  0  0  0  0  0  0
   11.4070   39.9440   19.3770 O   0  0  0  0  0  0  0  0  0  0  0  0
   10.9810   39.8010   17.0720 N   0  0  0  0  0  0  0  0  0  0  0  0
   11.2460   41.1590   16.5850 C   0  0  0  0  0  0  0  0  0  0  0  0
   10.1490   38.9450   16.2150 C   0  0  0  0  0  0  0  0  0  0  0  0
    9.4570   37.8530   16.9960 C   0  0  0  0  0  0  0  0  0  0  0  0
    8.7670   37.9480   18.1930 C   0  0  0  0  0  0  0  0  0  0  0  0
    8.4790   39.1500   19.0350 C   0  0  0  0  0  0  0  0  0  0  0  0
    8.1210   40.2060   18.4710 O   0  0  0  0  0  0  0  0  0  0  0  0
    8.6130   39.1040   20.2770 O   0  0  0  0  0  1  0  0  0  0  0  0
    8.3450   36.6570   18.5770 N   0  0  0  0  0  0  0  0  0  0  0  0
    7.5770   36.2650   19.7620 C   0  0  0  0  0  0  0  0  0  0  0  0
    6.2300   36.9820   19.9230 C   0  0  0  0  0  0  0  0  0  0  0  0
    5.9140   37.6750   21.1180 C   0  0  0  0  0  0  0  0  0  0  0  0
    4.6810   38.3330   21.2700 C   0  0  0  0  0  0  0  0  0  0  0  0
    3.7400   38.3080   20.2290 C   0  0  0  0  0  0  0  0  0  0  0  0
    4.0290   37.6260   19.0320 C   0  0  0  0  0  0  0  0  0  0  0  0
    3.0710   37.6110   17.9970 C   0  0  0  0  0  0  0  0  0  0  0  0
    3.3380   36.9350   16.7930 C   0  0  0  0  0  0  0  0  0  0  0  0
    4.5660   36.2720   16.6220 C   0  0  0  0  0  0  0  0  0  0  0  0
    5.5270   36.2820   17.6520 C   0  0  0  0  0  0  0  0  0  0  0  0
    5.2740   36.9580   18.8710 C   0  0  0  0  0  0  0  0  0  0  0  0
    8.7660   35.7360   17.6260 C   0  0  0  0  0  0  0  0  0  0  0  0
    8.6180   34.3360   17.5440 C   0  0  0  0  0  0  0  0  0  0  0  0
    9.1450   33.6390   16.4440 C   0  0  0  0  0  0  0  0  0  0  0  0
    9.8160   34.3440   15.4300 C   0  0  0  0  0  0  0  0  0  0  0  0
   10.3230   33.6780   14.3650 F   0  0  0  0  0  0  0  0  0  0  0  0
    9.9630   35.7410   15.5200 C   0  0  0  0  0  0  0  0  0  0  0  0
    9.4480   36.4700   16.6200 C   0  0  0  0  0  0  0  0  0  0  0  0
   13.0507   35.7991   17.4558 H   0  0  0  0  0  0  0  0  0  0  0  0
   12.1835   36.4902   16.0426 H   0  0  0  0  0  0  0  0  0  0  0  0
   13.9778   36.4075   16.0426 H   0  0  0  0  0  0  0  0  0  0  0  0
   14.0789   38.0484   17.8886 H   0  0  0  0  0  0  0  0  0  0  0  0
   13.1328   38.7236   16.5212 H   0  0  0  0  0  0  0  0  0  0  0  0
   11.3782   41.8364   17.4415 H   0  0  0  0  0  0  0  0  0  0  0  0
   12.1608   41.1575   15.9741 H   0  0  0  0  0  0  0  0  0  0  0  0
   10.3978   41.5015   15.9741 H   0  0  0  0  0  0  0  0  0  0  0  0
    9.3859   39.5685   15.7263 H   0  0  0  0  0  0  0  0  0  0  0  0
   10.8083   38.4651   15.4767 H   0  0  0  0  0  0  0  0  0  0  0  0
    7.3839   35.1837   19.7022 H   0  0  0  0  0  0  0  0  0  0  0  0
    8.1852   36.5502   20.6330 H   0  0  0  0  0  0  0  0  0  0  0  0
    6.6450   37.6984   21.9396 H   0  0  0  0  0  0  0  0  0  0  0  0
    4.4539   38.8672   22.2044 H   0  0  0  0  0  0  0  0  0  0  0  0
    2.7750   38.8222   20.3487 H   0  0  0  0  0  0  0  0  0  0  0  0
    2.1108   38.1303   18.1321 H   0  0  0  0  0  0  0  0  0  0  0  0
    2.5886   36.9250   15.9878 H   0  0  0  0  0  0  0  0  0  0  0  0
    4.7771   35.7436   15.6806 H   0  0  0  0  0  0  0  0  0  0  0  0
    6.4841   35.7593   17.5082 H   0  0  0  0  0  0  0  0  0  0  0  0
    8.0906   33.7904   18.3403 H   0  0  0  0  0  0  0  0  0  0  0  0
    9.0330   32.5468   16.3766 H   0  0  0  0  0  0  0  0  0  0  0  0
   10.4897   36.2788   14.7180 H   0  0  0  0  0  0  0  0  0  0  0  0
  1  2  1  0
  2  3  1  0
  3  4  1  0
  4  5  2  0
  4  6  1  0
  6  7  1  0
  6  8  1  0
  8  9  1  0
  9 10  2  0
 10 11  1  0
 11 12  2  0
 11 13  1  0
 10 14  1  0
 14 15  1  0
 15 16  1  0
 16 17  2  0
 17 18  1  0
 18 19  2  0
 19 20  1  0
 20 21  2  0
 21 22  1  0
 22 23  2  0
 23 24  1  0
 24 25  2  0
 14 26  1  0
 26 27  2  0
 27 28  1  0
 28 29  2  0
 29 30  1  0
 29 31  1  0
 31 32  2  0
 32  9  1  0
 25 16  1  0
 32 26  1  0
 25 20  1  0
  1 33  1  0
  1 34  1  0
  1 35  1  0
  2 36  1  0
  2 37  1  0
  7 38  1  0
  7 39  1  0
  7 40  1  0
  8 41  1  0
  8 42  1  0
 15 43  1  0
 15 44  1  0
 17 45  1  0
 18 46  1  0
 19 47  1  0
 21 48  1  0
 22 49  1  0
 23 50  1  0
 24 51  1  0
 27 52  1  0
 28 53  1  0
 31 54  1  0
M  CHG  1  13  -1
M  END
>  <meeko>  (333) 
{"free_energy": -5.34, "intermolecular_energy": -7.73, "internal_energy": -2.13, "cluster_size": 136, "cluster_id": 17, "rank_in_cluster": 112}

$$$$

     RDKit          3D

 54 57  0  0  0  0  0  0  0  0999 V2000
   12.3600   43.6650    4.4450 C   0  0  0  0  0  0  0  0  0  0  0  0
   12.2810   45.0090    5.1720 C   0  0  0  0  0  0  0  0  0  0  0  0
   12.0070   44.7820    6.5450 O   0  0  0  0  0  0  0  0  0  0  0  0
   13.0150   44.7710    7.4430 C   0  0  0  0  0  0  0  0  0  0  0  0
   14.0180   45.4810    7.3460 O   0  0  0  0  0  0  0  0  0  0  0  0
   12.7460   43.8600    8.4730 N   0  0  0  0  0  0  0  0  0  0  0  0
   13.5140   43.8460    9.7230 C   0  0  0  0  0  0  0  0  0  0  0  0
   11.6910   42.8470    8.3370 C   0  0  0  0  0  0  0  0  0  0  0  0
   11.9680   41.6180    9.1710 C   0  0  0  0  0  0  0  0  0  0  0  0
   11.2770   41.1450   10.2730 C   0  0  0  0  0  0  0  0  0  0  0  0
   10.0470   41.6850   10.9320 C   0  0  0  0  0  0  0  0  0  0  0  0
   10.1780   42.4860   11.8820 O   0  0  0  0  0  0  0  0  0  0  0  0
    8.9110   41.3270   10.5520 O   0  0  0  0  0  1  0  0  0  0  0  0
   11.9370   39.9990   10.7660 N   0  0  0  0  0  0  0  0  0  0  0  0
   11.5690   39.1560   11.9070 C   0  0  0  0  0  0  0  0  0  0  0  0
   10.6140   38.0020   11.5750 C   0  0  0  0  0  0  0  0  0  0  0  0
   10.3340   37.6560   10.2290 C   0  0  0  0  0  0  0  0  0  0  0  0
    9.4600   36.5990    9.9200 C   0  0  0  0  0  0  0  0  0  0  0  0
    8.8490   35.8690   10.9510 C   0  0  0  0  0  0  0  0  0  0  0  0
    9.1100   36.1940   12.2960 C   0  0  0  0  0  0  0  0  0  0  0  0
    8.4860   35.4500   13.3190 C   0  0  0  0  0  0  0  0  0  0  0  0
    8.7320   35.7580   14.6690 C   0  0  0  0  0  0  0  0  0  0  0  0
    9.6040   36.8110   14.9990 C   0  0  0  0  0  0  0  0  0  0  0  0
   10.2290   37.5570   13.9820 C   0  0  0  0  0  0  0  0  0  0  0  0
    9.9930   37.2610   12.6170 C   0  0  0  0  0  0  0  0  0  0  0  0
   13.0520   39.7390    9.9790 C   0  0  0  0  0  0  0  0  0  0  0  0
   14.0410   38.7360   10.0520 C   0  0  0  0  0  0  0  0  0  0  0  0
   15.0750   38.7010    9.1020 C   0  0  0  0  0  0  0  0  0  0  0  0
   15.1160   39.6670    8.0820 C   0  0  0  0  0  0  0  0  0  0  0  0
   16.1080   39.6370    7.1600 F   0  0  0  0  0  0  0  0  0  0  0  0
   14.1270   40.6680    8.0170 C   0  0  0  0  0  0  0  0  0  0  0  0
   13.0770   40.7330    8.9650 C   0  0  0  0  0  0  0  0  0  0  0  0
   12.4078   42.8510    5.1833 H   0  0  0  0  0  0  0  0  0  0  0  0
   11.4679   43.5362    3.8145 H   0  0  0  0  0  0  0  0  0  0  0  0
   13.2611   43.6416    3.8145 H   0  0  0  0  0  0  0  0  0  0  0  0
   13.2398   45.5387    5.0710 H   0  0  0  0  0  0  0  0  0  0  0  0
   11.4795   45.6204    4.7317 H   0  0  0  0  0  0  0  0  0  0  0  0
   12.8225   43.8586   10.5784 H   0  0  0  0  0  0  0  0  0  0  0  0
   14.1313   42.9365    9.7639 H   0  0  0  0  0  0  0  0  0  0  0  0
   14.1640   44.7324    9.7639 H   0  0  0  0  0  0  0  0  0  0  0  0
   10.7352   43.2857    8.6594 H   0  0  0  0  0  0  0  0  0  0  0  0
   11.6543   42.5376    7.2820 H   0  0  0  0  0  0  0  0  0  0  0  0
   12.4909   38.7269   12.3264 H   0  0  0  0  0  0  0  0  0  0  0  0
   11.0325   39.8077   12.6123 H   0  0  0  0  0  0  0  0  0  0  0  0
   10.8077   38.2231    9.4141 H   0  0  0  0  0  0  0  0  0  0  0  0
    9.2551   36.3442    8.8697 H   0  0  0  0  0  0  0  0  0  0  0  0
    8.1655   35.0420   10.7082 H   0  0  0  0  0  0  0  0  0  0  0  0
    7.8047   34.6261   13.0600 H   0  0  0  0  0  0  0  0  0  0  0  0
    8.2436   35.1767   15.4649 H   0  0  0  0  0  0  0  0  0  0  0  0
    9.7981   37.0522   16.0545 H   0  0  0  0  0  0  0  0  0  0  0  0
   10.9085   38.3793   14.2504 H   0  0  0  0  0  0  0  0  0  0  0  0
   14.0026   37.9820   10.8520 H   0  0  0  0  0  0  0  0  0  0  0  0
   15.8490   37.9212    9.1561 H   0  0  0  0  0  0  0  0  0  0  0  0
   14.1713   41.4160    7.2117 H   0  0  0  0  0  0  0  0  0  0  0  0
  1  2  1  0
  2  3  1  0
  3  4  1  0
  4  5  2  0
  4  6  1  0
  6  7  1  0
  6  8  1  0
  8  9  1  0
  9 10  2  0
 10 11  1  0
 11 12  2  0
 11 13  1  0
 10 14  1  0
 14 15  1  0
 15 16  1  0
 16 17  2  0
 17 18  1  0
 18 19  2  0
 19 20  1  0
 20 21  2  0
 21 22  1  0
 22 23  2  0
 23 24  1  0
 24 25  2  0
 14 26  1  0
 26 27  2  0
 27 28  1  0
 28 29  2  0
 29 30  1  0
 29 31  1  0
 31 32  2  0
 32  9  1  0
 25 16  1  0
 32 26  1  0
 25 20  1  0
  1 33  1  0
  1 34  1  0
  1 35  1  0
  2 36  1  0
  2 37  1  0
  7 38  1  0
  7 39  1  0
  7 40  1  0
  8 41  1  0
  8 42  1  0
 15 43  1  0
 15 44  1  0
 17 45  1  0
 18 46  1  0
 19 47  1  0
 21 48  1  0
 22 49  1  0
 23 50  1  0
 24 51  1  0
 27 52  1  0
 28 53  1  0
 31 54  1  0
M  CHG  1  13  -1
M  END
>  <meeko>  (334) 
{"free_energy": -5.22, "intermolecular_energy": -7.61, "internal_energy": -1.72, "cluster_size": 27, "cluster_id": 96, "rank_in_cluster": 8}

$$$$

     RDKit          3D

 54 57  0  0  0  0  0  0  0  0999 V2000
   11.5230   32.5530   15.9210 C   0  0  0  0  0  0  0  0  0  0  0  0
   10.3880   33.2120   16.7080 C   0  0  0  0  0  0  0  0  0  0  0  0
   10.0840   34.4690   16.1260 O   0  0  0  0  0  0  0  0  0  0  0  0
   10.9320   35.0240   15.2340 C   0  0  0  0  0  0  0  0  0  0  0  0
   11.1000   34.5840   14.0950 O   0  0  0  0  0  0  0  0  0  0  0  0
   11.5640   36.1450   15.7870 N   0  0  0  0  0  0  0  0  0  0  0  0
   12.3240   36.0730   17.0400 C   0  0  0  0  0  0  0  0  0  0  0  0
   11.4710   37.4640   15.1480 C   0  0  0  0  0  0  0  0  0  0  0  0
   10.8220   37.3960   13.7850 C   0  0  0  0  0  0  0  0  0  0  0  0
    9.5810   36.8910   13.4410 C   0  0  0  0  0  0  0  0  0  0  0  0
    8.5150   36.3030   14.3110 C   0  0  0  0  0  0  0  0  0  0  0  0
    7.9860   37.0260   15.1830 O   0  0  0  0  0  0  0  0  0  0  0  0
    8.1740   35.1080   14.1810 O   0  0  0  0  0  1  0  0  0  0  0  0
    9.4270   36.9790   12.0400 N   0  0  0  0  0  0  0  0  0  0  0  0
    8.2780   36.5790   11.2240 C   0  0  0  0  0  0  0  0  0  0  0  0
    8.0530   37.4290    9.9660 C   0  0  0  0  0  0  0  0  0  0  0  0
    8.1900   38.8390   10.0080 C   0  0  0  0  0  0  0  0  0  0  0  0
    7.9860   39.6210    8.8590 C   0  0  0  0  0  0  0  0  0  0  0  0
    7.6370   39.0070    7.6450 C   0  0  0  0  0  0  0  0  0  0  0  0
    7.4930   37.6080    7.5770 C   0  0  0  0  0  0  0  0  0  0  0  0
    7.1430   37.0090    6.3500 C   0  0  0  0  0  0  0  0  0  0  0  0
    6.9930   35.6140    6.2590 C   0  0  0  0  0  0  0  0  0  0  0  0
    7.1950   34.8140    7.3980 C   0  0  0  0  0  0  0  0  0  0  0  0
    7.5440   35.4060    8.6270 C   0  0  0  0  0  0  0  0  0  0  0  0
    7.7000   36.8100    8.7360 C   0  0  0  0  0  0  0  0  0  0  0  0
   10.5710   37.5410   11.4890 C   0  0  0  0  0  0  0  0  0  0  0  0
   10.9270   37.8300   10.1550 C   0  0  0  0  0  0  0  0  0  0  0  0
   12.1710   38.4190    9.8740 C   0  0  0  0  0  0  0  0  0  0  0  0
   13.0530   38.7190   10.9260 C   0  0  0  0  0  0  0  0  0  0  0  0
   14.2520   39.2910   10.6620 F   0  0  0  0  0  0  0  0  0  0  0  0
   12.6920   38.4250   12.2550 C   0  0  0  0  0  0  0  0  0  0  0  0
   11.4490   37.8250   12.5690 C   0  0  0  0  0  0  0  0  0  0  0  0
   12.2562   32.1273   16.6219 H   0  0  0  0  0  0  0  0  0  0  0  0
   11.1134   31.7523   15.2877 H   0  0  0  0  0  0  0  0  0  0  0  0
   12.0153   33.3057   15.2877 H   0  0  0  0  0  0  0  0  0  0  0  0
    9.4970   32.5676   16.6776 H   0  0  0  0  0  0  0  0  0  0  0  0
   10.6984   33.3548   17.7536 H   0  0  0  0  0  0  0  0  0  0  0  0
   11.6322   36.1385   17.8927 H   0  0  0  0  0  0  0  0  0  0  0  0
   12.8701   35.1191   17.0833 H   0  0  0  0  0  0  0  0  0  0  0  0
   13.0395   36.9074   17.0833 H   0  0  0  0  0  0  0  0  0  0  0  0
   10.8744   38.1275   15.7913 H   0  0  0  0  0  0  0  0  0  0  0  0
   12.4937   37.8467   15.0152 H   0  0  0  0  0  0  0  0  0  0  0  0
    8.4287   35.5358   10.9093 H   0  0  0  0  0  0  0  0  0  0  0  0
    7.3876   36.7186   11.8546 H   0  0  0  0  0  0  0  0  0  0  0  0
    8.4603   39.3287   10.9552 H   0  0  0  0  0  0  0  0  0  0  0  0
    8.0996   40.7139    8.9101 H   0  0  0  0  0  0  0  0  0  0  0  0
    7.4759   39.6200    6.7459 H   0  0  0  0  0  0  0  0  0  0  0  0
    6.9865   37.6358    5.4597 H   0  0  0  0  0  0  0  0  0  0  0  0
    6.7186   35.1498    5.3002 H   0  0  0  0  0  0  0  0  0  0  0  0
    7.0800   33.7222    7.3285 H   0  0  0  0  0  0  0  0  0  0  0  0
    7.6972   34.7714    9.5123 H   0  0  0  0  0  0  0  0  0  0  0  0
   10.2315   37.5945    9.3360 H   0  0  0  0  0  0  0  0  0  0  0  0
   12.4534   38.6444    8.8350 H   0  0  0  0  0  0  0  0  0  0  0  0
   13.3922   38.6672   13.0680 H   0  0  0  0  0  0  0  0  0  0  0  0
  1  2  1  0
  2  3  1  0
  3  4  1  0
  4  5  2  0
  4  6  1  0
  6  7  1  0
  6  8  1  0
  8  9  1  0
  9 10  2  0
 10 11  1  0
 11 12  2  0
 11 13  1  0
 10 14  1  0
 14 15  1  0
 15 16  1  0
 16 17  2  0
 17 18  1  0
 18 19  2  0
 19 20  1  0
 20 21  2  0
 21 22  1  0
 22 23  2  0
 23 24  1  0
 24 25  2  0
 14 26  1  0
 26 27  2  0
 27 28  1  0
 28 29  2  0
 29 30  1  0
 29 31  1  0
 31 32  2  0
 32  9  1  0
 25 16  1  0
 32 26  1  0
 25 20  1  0
  1 33  1  0
  1 34  1  0
  1 35  1  0
  2 36  1  0
  2 37  1  0
  7 38  1  0
  7 39  1  0
  7 40  1  0
  8 41  1  0
  8 42  1  0
 15 43  1  0
 15 44  1  0
 17 45  1  0
 18 46  1  0
 19 47  1  0
 21 48  1  0
 22 49  1  0
 23 50  1  0
 24 51  1  0
 27 52  1  0
 28 53  1  0
 31 54  1  0
M  CHG  1  13  -1
M  END
>  <meeko>  (335) 
{"free_energy": -7.61, "intermolecular_energy": -10.0, "internal_energy": -0.66, "cluster_size": 263, "cluster_id": 1, "rank_in_cluster": 40}

$$$$

     RDKit          3D

 54 57  0  0  0  0  0  0  0  0999 V2000
    7.6700   42.2380   11.8310 C   0  0  0  0  0  0  0  0  0  0  0  0
    9.1170   42.4310   11.3730 C   0  0  0  0  0  0  0  0  0  0  0  0
    9.9880   42.2200   12.4730 O   0  0  0  0  0  0  0  0  0  0  0  0
   11.2030   41.6660   12.2770 C   0  0  0  0  0  0  0  0  0  0  0  0
   11.8910   41.8770   11.2770 O   0  0  0  0  0  0  0  0  0  0  0  0
   11.5490   40.8450   13.3590 N   0  0  0  0  0  0  0  0  0  0  0  0
   11.0770   41.1110   14.7220 C   0  0  0  0  0  0  0  0  0  0  0  0
   12.4320   39.6840   13.1830 C   0  0  0  0  0  0  0  0  0  0  0  0
   11.6740   38.4480   12.7600 C   0  0  0  0  0  0  0  0  0  0  0  0
   11.7950   37.7140   11.5930 C   0  0  0  0  0  0  0  0  0  0  0  0
   12.7250   37.9080   10.4360 C   0  0  0  0  0  0  0  0  0  0  0  0
   12.3890   38.6890    9.5210 O   0  0  0  0  0  0  0  0  0  0  0  0
   13.8070   37.2840   10.3780 O   0  0  0  0  0  1  0  0  0  0  0  0
   10.8370   36.6780   11.6060 N   0  0  0  0  0  0  0  0  0  0  0  0
   10.5970   35.6470   10.5930 C   0  0  0  0  0  0  0  0  0  0  0  0
    9.3980   35.9140    9.6730 C   0  0  0  0  0  0  0  0  0  0  0  0
    8.6940   34.8430    9.0680 C   0  0  0  0  0  0  0  0  0  0  0  0
    7.5960   35.0830    8.2250 C   0  0  0  0  0  0  0  0  0  0  0  0
    7.1820   36.4000    7.9680 C   0  0  0  0  0  0  0  0  0  0  0  0
    7.8660   37.4810    8.5550 C   0  0  0  0  0  0  0  0  0  0  0  0
    7.4360   38.7970    8.2860 C   0  0  0  0  0  0  0  0  0  0  0  0
    8.1050   39.8920    8.8620 C   0  0  0  0  0  0  0  0  0  0  0  0
    9.2050   39.6730    9.7090 C   0  0  0  0  0  0  0  0  0  0  0  0
    9.6390   38.3610    9.9810 C   0  0  0  0  0  0  0  0  0  0  0  0
    8.9770   37.2460    9.4100 C   0  0  0  0  0  0  0  0  0  0  0  0
   10.1020   36.7490   12.7830 C   0  0  0  0  0  0  0  0  0  0  0  0
    9.0340   35.9690   13.2720 C   0  0  0  0  0  0  0  0  0  0  0  0
    8.4700   36.2620   14.5250 C   0  0  0  0  0  0  0  0  0  0  0  0
    8.9760   37.3310   15.2850 C   0  0  0  0  0  0  0  0  0  0  0  0
    8.4390   37.6150   16.4950 F   0  0  0  0  0  0  0  0  0  0  0  0
   10.0410   38.1070   14.7880 C   0  0  0  0  0  0  0  0  0  0  0  0
   10.6250   37.8410   13.5260 C   0  0  0  0  0  0  0  0  0  0  0  0
    7.6310   42.2328   12.9303 H   0  0  0  0  0  0  0  0  0  0  0  0
    7.0506   43.0615   11.4460 H   0  0  0  0  0  0  0  0  0  0  0  0
    7.2881   41.2810   11.4460 H   0  0  0  0  0  0  0  0  0  0  0  0
    9.3497   41.7094   10.5761 H   0  0  0  0  0  0  0  0  0  0  0  0
    9.2491   43.4531   10.9885 H   0  0  0  0  0  0  0  0  0  0  0  0
   11.7986   40.7043   15.4458 H   0  0  0  0  0  0  0  0  0  0  0  0
   10.9802   42.1965   14.8712 H   0  0  0  0  0  0  0  0  0  0  0  0
   10.0983   40.6316   14.8712 H   0  0  0  0  0  0  0  0  0  0  0  0
   13.1799   39.9217   12.4122 H   0  0  0  0  0  0  0  0  0  0  0  0
   12.9079   39.4725   14.1519 H   0  0  0  0  0  0  0  0  0  0  0  0
   11.4976   35.5669    9.9665 H   0  0  0  0  0  0  0  0  0  0  0  0
   10.3657   34.7222   11.1418 H   0  0  0  0  0  0  0  0  0  0  0  0
    9.0122   33.8079    9.2614 H   0  0  0  0  0  0  0  0  0  0  0  0
    7.0604   34.2389    7.7661 H   0  0  0  0  0  0  0  0  0  0  0  0
    6.3225   36.5869    7.3074 H   0  0  0  0  0  0  0  0  0  0  0  0
    6.5746   38.9676    7.6235 H   0  0  0  0  0  0  0  0  0  0  0  0
    7.7680   40.9174    8.6500 H   0  0  0  0  0  0  0  0  0  0  0  0
    9.7284   40.5286   10.1607 H   0  0  0  0  0  0  0  0  0  0  0  0
   10.5017   38.2001   10.6443 H   0  0  0  0  0  0  0  0  0  0  0  0
    8.6432   35.1328   12.6737 H   0  0  0  0  0  0  0  0  0  0  0  0
    7.6357   35.6572   14.9099 H   0  0  0  0  0  0  0  0  0  0  0  0
   10.4281   38.9391   15.3944 H   0  0  0  0  0  0  0  0  0  0  0  0
  1  2  1  0
  2  3  1  0
  3  4  1  0
  4  5  2  0
  4  6  1  0
  6  7  1  0
  6  8  1  0
  8  9  1  0
  9 10  2  0
 10 11  1  0
 11 12  2  0
 11 13  1  0
 10 14  1  0
 14 15  1  0
 15 16  1  0
 16 17  2  0
 17 18  1  0
 18 19  2  0
 19 20  1  0
 20 21  2  0
 21 22  1  0
 22 23  2  0
 23 24  1  0
 24 25  2  0
 14 26  1  0
 26 27  2  0
 27 28  1  0
 28 29  2  0
 29 30  1  0
 29 31  1  0
 31 32  2  0
 32  9  1  0
 25 16  1  0
 32 26  1  0
 25 20  1  0
  1 33  1  0
  1 34  1  0
  1 35  1  0
  2 36  1  0
  2 37  1  0
  7 38  1  0
  7 39  1  0
  7 40  1  0
  8 41  1  0
  8 42  1  0
 15 43  1  0
 15 44  1  0
 17 45  1  0
 18 46  1  0
 19 47  1  0
 21 48  1  0
 22 49  1  0
 23 50  1  0
 24 51  1  0
 27 52  1  0
 28 53  1  0
 31 54  1  0
M  CHG  1  13  -1
M  END
>  <meeko>  (336) 
{"free_energy": -6.14, "intermolecular_energy": -8.52, "internal_energy": -1.67, "cluster_size": 76, "cluster_id": 21, "rank_in_cluster": 22}

$$$$

     RDKit          3D

 54 57  0  0  0  0  0  0  0  0999 V2000
    7.3040   43.3630   13.5170 C   0  0  0  0  0  0  0  0  0  0  0  0
    8.7430   43.6600   13.0870 C   0  0  0  0  0  0  0  0  0  0  0  0
    9.6320   43.2320   14.1060 O   0  0  0  0  0  0  0  0  0  0  0  0
    9.3000   42.1920   14.9010 C   0  0  0  0  0  0  0  0  0  0  0  0
    8.5510   42.2950   15.8740 O   0  0  0  0  0  0  0  0  0  0  0  0
    9.9160   41.0160   14.4550 N   0  0  0  0  0  0  0  0  0  0  0  0
    9.8190   40.5630   13.0620 C   0  0  0  0  0  0  0  0  0  0  0  0
   10.6730   40.1560   15.3750 C   0  0  0  0  0  0  0  0  0  0  0  0
    9.8760   38.9510   15.8180 C   0  0  0  0  0  0  0  0  0  0  0  0
    9.2920   38.7030   17.0470 C   0  0  0  0  0  0  0  0  0  0  0  0
    9.2500   39.5590   18.2740 C   0  0  0  0  0  0  0  0  0  0  0  0
    8.1410   39.9600   18.6880 O   0  0  0  0  0  0  0  0  0  0  0  0
   10.3050   39.8840   18.8600 O   0  0  0  0  0  1  0  0  0  0  0  0
    8.7050   37.4200   17.0210 N   0  0  0  0  0  0  0  0  0  0  0  0
    7.9680   36.7330   18.0860 C   0  0  0  0  0  0  0  0  0  0  0  0
    6.4420   36.8680   18.0040 C   0  0  0  0  0  0  0  0  0  0  0  0
    5.7830   36.9200   16.7500 C   0  0  0  0  0  0  0  0  0  0  0  0
    4.3850   37.0430   16.6710 C   0  0  0  0  0  0  0  0  0  0  0  0
    3.6200   37.1200   17.8450 C   0  0  0  0  0  0  0  0  0  0  0  0
    4.2500   37.0730   19.1030 C   0  0  0  0  0  0  0  0  0  0  0  0
    3.4650   37.1520   20.2720 C   0  0  0  0  0  0  0  0  0  0  0  0
    4.0740   37.1070   21.5390 C   0  0  0  0  0  0  0  0  0  0  0  0
    5.4710   36.9830   21.6390 C   0  0  0  0  0  0  0  0  0  0  0  0
    6.2600   36.9040   20.4760 C   0  0  0  0  0  0  0  0  0  0  0  0
    5.6640   36.9480   19.1920 C   0  0  0  0  0  0  0  0  0  0  0  0
    8.9130   36.8470   15.7730 C   0  0  0  0  0  0  0  0  0  0  0  0
    8.5480   35.5930   15.2420 C   0  0  0  0  0  0  0  0  0  0  0  0
    8.8860   35.2670   13.9180 C   0  0  0  0  0  0  0  0  0  0  0  0
    9.5860   36.1970   13.1290 C   0  0  0  0  0  0  0  0  0  0  0  0
    9.9110   35.8900   11.8500 F   0  0  0  0  0  0  0  0  0  0  0  0
    9.9500   37.4460   13.6670 C   0  0  0  0  0  0  0  0  0  0  0  0
    9.6300   37.8000   15.0000 C   0  0  0  0  0  0  0  0  0  0  0  0
    7.2446   43.3507   14.6153 H   0  0  0  0  0  0  0  0  0  0  0  0
    6.6352   44.1420   13.1223 H   0  0  0  0  0  0  0  0  0  0  0  0
    6.9983   42.3828   13.1223 H   0  0  0  0  0  0  0  0  0  0  0  0
    8.9666   43.1221   12.1539 H   0  0  0  0  0  0  0  0  0  0  0  0
    8.8636   44.7407   12.9213 H   0  0  0  0  0  0  0  0  0  0  0  0
    9.5887   39.4876   13.0414 H   0  0  0  0  0  0  0  0  0  0  0  0
    9.0196   41.1191   12.5504 H   0  0  0  0  0  0  0  0  0  0  0  0
   10.7760   40.7429   12.5504 H   0  0  0  0  0  0  0  0  0  0  0  0
   11.5849   39.8098   14.8665 H   0  0  0  0  0  0  0  0  0  0  0  0
   10.9134   40.7488   16.2699 H   0  0  0  0  0  0  0  0  0  0  0  0
    8.2196   35.6631   18.0408 H   0  0  0  0  0  0  0  0  0  0  0  0
    8.2705   37.2111   19.0294 H   0  0  0  0  0  0  0  0  0  0  0  0
    6.3748   36.8632   15.8245 H   0  0  0  0  0  0  0  0  0  0  0  0
    3.8906   37.0789   15.6890 H   0  0  0  0  0  0  0  0  0  0  0  0
    2.5261   37.2173   17.7821 H   0  0  0  0  0  0  0  0  0  0  0  0
    2.3722   37.2492   20.1926 H   0  0  0  0  0  0  0  0  0  0  0  0
    3.4592   37.1686   22.4490 H   0  0  0  0  0  0  0  0  0  0  0  0
    5.9488   36.9476   22.6292 H   0  0  0  0  0  0  0  0  0  0  0  0
    7.3521   36.8070   20.5654 H   0  0  0  0  0  0  0  0  0  0  0  0
    7.9991   34.8705   15.8639 H   0  0  0  0  0  0  0  0  0  0  0  0
    8.6045   34.2890   13.5005 H   0  0  0  0  0  0  0  0  0  0  0  0
   10.4958   38.1637   13.0370 H   0  0  0  0  0  0  0  0  0  0  0  0
  1  2  1  0
  2  3  1  0
  3  4  1  0
  4  5  2  0
  4  6  1  0
  6  7  1  0
  6  8  1  0
  8  9  1  0
  9 10  2  0
 10 11  1  0
 11 12  2  0
 11 13  1  0
 10 14  1  0
 14 15  1  0
 15 16  1  0
 16 17  2  0
 17 18  1  0
 18 19  2  0
 19 20  1  0
 20 21  2  0
 21 22  1  0
 22 23  2  0
 23 24  1  0
 24 25  2  0
 14 26  1  0
 26 27  2  0
 27 28  1  0
 28 29  2  0
 29 30  1  0
 29 31  1  0
 31 32  2  0
 32  9  1  0
 25 16  1  0
 32 26  1  0
 25 20  1  0
  1 33  1  0
  1 34  1  0
  1 35  1  0
  2 36  1  0
  2 37  1  0
  7 38  1  0
  7 39  1  0
  7 40  1  0
  8 41  1  0
  8 42  1  0
 15 43  1  0
 15 44  1  0
 17 45  1  0
 18 46  1  0
 19 47  1  0
 21 48  1  0
 22 49  1  0
 23 50  1  0
 24 51  1  0
 27 52  1  0
 28 53  1  0
 31 54  1  0
M  CHG  1  13  -1
M  END
>  <meeko>  (337) 
{"free_energy": -5.98, "intermolecular_energy": -8.37, "internal_energy": -1.63, "cluster_size": 26, "cluster_id": 77, "rank_in_cluster": 1}

$$$$

     RDKit          3D

 54 57  0  0  0  0  0  0  0  0999 V2000
    6.7390   38.2990    6.6470 C   0  0  0  0  0  0  0  0  0  0  0  0
    7.4020   37.7300    7.9030 C   0  0  0  0  0  0  0  0  0  0  0  0
    7.0940   36.3500    8.0100 O   0  0  0  0  0  0  0  0  0  0  0  0
    8.0460   35.4720    8.3950 C   0  0  0  0  0  0  0  0  0  0  0  0
    8.2440   34.3960    7.8290 O   0  0  0  0  0  0  0  0  0  0  0  0
    8.7520   35.9670    9.4980 N   0  0  0  0  0  0  0  0  0  0  0  0
   10.2080   36.1480    9.4750 C   0  0  0  0  0  0  0  0  0  0  0  0
    8.0670   36.3030   10.7540 C   0  0  0  0  0  0  0  0  0  0  0  0
    8.8870   37.2280   11.6230 C   0  0  0  0  0  0  0  0  0  0  0  0
    9.3950   38.4780   11.3190 C   0  0  0  0  0  0  0  0  0  0  0  0
    9.2540   39.2870   10.0680 C   0  0  0  0  0  0  0  0  0  0  0  0
    9.9960   39.0260    9.0970 O   0  0  0  0  0  0  0  0  0  0  0  0
    8.4220   40.2190   10.0030 O   0  0  0  0  0  1  0  0  0  0  0  0
   10.1510   38.9400   12.4170 N   0  0  0  0  0  0  0  0  0  0  0  0
   10.8670   40.2110   12.5590 C   0  0  0  0  0  0  0  0  0  0  0  0
   11.6020   40.6830   11.2970 C   0  0  0  0  0  0  0  0  0  0  0  0
   11.3050   41.9390   10.7110 C   0  0  0  0  0  0  0  0  0  0  0  0
   11.9760   42.3740    9.5550 C   0  0  0  0  0  0  0  0  0  0  0  0
   12.9550   41.5610    8.9620 C   0  0  0  0  0  0  0  0  0  0  0  0
   13.2660   40.3080    9.5250 C   0  0  0  0  0  0  0  0  0  0  0  0
   14.2520   39.5040    8.9160 C   0  0  0  0  0  0  0  0  0  0  0  0
   14.5790   38.2490    9.4600 C   0  0  0  0  0  0  0  0  0  0  0  0
   13.9200   37.7960   10.6170 C   0  0  0  0  0  0  0  0  0  0  0  0
   12.9340   38.5940   11.2290 C   0  0  0  0  0  0  0  0  0  0  0  0
   12.5930   39.8610   10.6950 C   0  0  0  0  0  0  0  0  0  0  0  0
   10.1280   37.9840   13.4240 C   0  0  0  0  0  0  0  0  0  0  0  0
   10.7270   37.9480   14.7000 C   0  0  0  0  0  0  0  0  0  0  0  0
   10.5270   36.8370   15.5370 C   0  0  0  0  0  0  0  0  0  0  0  0
    9.7290   35.7670   15.0960 C   0  0  0  0  0  0  0  0  0  0  0  0
    9.5300   34.6950   15.8990 F   0  0  0  0  0  0  0  0  0  0  0  0
    9.1370   35.8090   13.8180 C   0  0  0  0  0  0  0  0  0  0  0  0
    9.3250   36.9120   12.9500 C   0  0  0  0  0  0  0  0  0  0  0  0
    5.9340   38.9898    6.9382 H   0  0  0  0  0  0  0  0  0  0  0  0
    7.4881   38.8397    6.0499 H   0  0  0  0  0  0  0  0  0  0  0  0
    6.3182   37.4766    6.0499 H   0  0  0  0  0  0  0  0  0  0  0  0
    8.4922   37.8591    7.8338 H   0  0  0  0  0  0  0  0  0  0  0  0
    7.0281   38.2614    8.7906 H   0  0  0  0  0  0  0  0  0  0  0  0
   10.5879   36.1952   10.5062 H   0  0  0  0  0  0  0  0  0  0  0  0
   10.6746   35.3009    8.9508 H   0  0  0  0  0  0  0  0  0  0  0  0
   10.4530   37.0835    8.9508 H   0  0  0  0  0  0  0  0  0  0  0  0
    7.1122   36.7947   10.5160 H   0  0  0  0  0  0  0  0  0  0  0  0
    7.9085   35.3684   11.3121 H   0  0  0  0  0  0  0  0  0  0  0  0
   10.1372   40.9849   12.8390 H   0  0  0  0  0  0  0  0  0  0  0  0
   11.6408   40.0455   13.3231 H   0  0  0  0  0  0  0  0  0  0  0  0
   10.5385   42.5825   11.1674 H   0  0  0  0  0  0  0  0  0  0  0  0
   11.7338   43.3524    9.1145 H   0  0  0  0  0  0  0  0  0  0  0  0
   13.4793   41.9027    8.0574 H   0  0  0  0  0  0  0  0  0  0  0  0
   14.7673   39.8601    8.0118 H   0  0  0  0  0  0  0  0  0  0  0  0
   15.3476   37.6238    8.9822 H   0  0  0  0  0  0  0  0  0  0  0  0
   14.1755   36.8155   11.0452 H   0  0  0  0  0  0  0  0  0  0  0  0
   12.4228   38.2292   12.1321 H   0  0  0  0  0  0  0  0  0  0  0  0
   11.3500   38.7885   15.0398 H   0  0  0  0  0  0  0  0  0  0  0  0
   10.9929   36.8048   16.5330 H   0  0  0  0  0  0  0  0  0  0  0  0
    8.5141   34.9650   13.4867 H   0  0  0  0  0  0  0  0  0  0  0  0
  1  2  1  0
  2  3  1  0
  3  4  1  0
  4  5  2  0
  4  6  1  0
  6  7  1  0
  6  8  1  0
  8  9  1  0
  9 10  2  0
 10 11  1  0
 11 12  2  0
 11 13  1  0
 10 14  1  0
 14 15  1  0
 15 16  1  0
 16 17  2  0
 17 18  1  0
 18 19  2  0
 19 20  1  0
 20 21  2  0
 21 22  1  0
 22 23  2  0
 23 24  1  0
 24 25  2  0
 14 26  1  0
 26 27  2  0
 27 28  1  0
 28 29  2  0
 29 30  1  0
 29 31  1  0
 31 32  2  0
 32  9  1  0
 25 16  1  0
 32 26  1  0
 25 20  1  0
  1 33  1  0
  1 34  1  0
  1 35  1  0
  2 36  1  0
  2 37  1  0
  7 38  1  0
  7 39  1  0
  7 40  1  0
  8 41  1  0
  8 42  1  0
 15 43  1  0
 15 44  1  0
 17 45  1  0
 18 46  1  0
 19 47  1  0
 21 48  1  0
 22 49  1  0
 23 50  1  0
 24 51  1  0
 27 52  1  0
 28 53  1  0
 31 54  1  0
M  CHG  1  13  -1
M  END
>  <meeko>  (338) 
{"free_energy": -5.93, "intermolecular_energy": -8.31, "internal_energy": -2.25, "cluster_size": 124, "cluster_id": 20, "rank_in_cluster": 54}

$$$$

     RDKit          3D

 54 57  0  0  0  0  0  0  0  0999 V2000
   11.0910   33.3540   15.1220 C   0  0  0  0  0  0  0  0  0  0  0  0
   10.1460   33.9970   16.1410 C   0  0  0  0  0  0  0  0  0  0  0  0
   10.4470   35.3790   16.2500 O   0  0  0  0  0  0  0  0  0  0  0  0
    9.9830   36.0910   17.2980 C   0  0  0  0  0  0  0  0  0  0  0  0
   10.3290   35.8870   18.4630 O   0  0  0  0  0  0  0  0  0  0  0  0
    9.0810   37.0720   16.8660 N   0  0  0  0  0  0  0  0  0  0  0  0
    8.6440   38.1690   17.7360 C   0  0  0  0  0  0  0  0  0  0  0  0
    8.5010   37.0320   15.5170 C   0  0  0  0  0  0  0  0  0  0  0  0
    9.5180   37.3500   14.4470 C   0  0  0  0  0  0  0  0  0  0  0  0
    9.5370   36.9510   13.1220 C   0  0  0  0  0  0  0  0  0  0  0  0
    8.5490   36.1250   12.3610 C   0  0  0  0  0  0  0  0  0  0  0  0
    8.1050   35.0830   12.8880 O   0  0  0  0  0  0  0  0  0  0  0  0
    8.1890   36.4620   11.2120 O   0  0  0  0  0  1  0  0  0  0  0  0
   10.7160   37.4370   12.5180 N   0  0  0  0  0  0  0  0  0  0  0  0
   11.1620   37.2740   11.1310 C   0  0  0  0  0  0  0  0  0  0  0  0
   11.5530   38.5780   10.4220 C   0  0  0  0  0  0  0  0  0  0  0  0
   10.5890   39.5880   10.1770 C   0  0  0  0  0  0  0  0  0  0  0  0
   10.9430   40.7840    9.5280 C   0  0  0  0  0  0  0  0  0  0  0  0
   12.2680   40.9910    9.1100 C   0  0  0  0  0  0  0  0  0  0  0  0
   13.2420   40.0020    9.3410 C   0  0  0  0  0  0  0  0  0  0  0  0
   14.5680   40.2270    8.9130 C   0  0  0  0  0  0  0  0  0  0  0  0
   15.5580   39.2520    9.1320 C   0  0  0  0  0  0  0  0  0  0  0  0
   15.2240   38.0500    9.7810 C   0  0  0  0  0  0  0  0  0  0  0  0
   13.9030   37.8190   10.2090 C   0  0  0  0  0  0  0  0  0  0  0  0
   12.8930   38.7900    9.9970 C   0  0  0  0  0  0  0  0  0  0  0  0
   11.4530   38.1470   13.4570 C   0  0  0  0  0  0  0  0  0  0  0  0
   12.6930   38.8120   13.3700 C   0  0  0  0  0  0  0  0  0  0  0  0
   13.2140   39.4720   14.4960 C   0  0  0  0  0  0  0  0  0  0  0  0
   12.4920   39.4680   15.7020 C   0  0  0  0  0  0  0  0  0  0  0  0
   12.9870   40.1060   16.7890 F   0  0  0  0  0  0  0  0  0  0  0  0
   11.2560   38.7990   15.7810 C   0  0  0  0  0  0  0  0  0  0  0  0
   10.7090   38.1190   14.6660 C   0  0  0  0  0  0  0  0  0  0  0  0
   11.8879   32.8118   15.6521 H   0  0  0  0  0  0  0  0  0  0  0  0
   10.5267   32.6516   14.4909 H   0  0  0  0  0  0  0  0  0  0  0  0
   11.5372   34.1367   14.4909 H   0  0  0  0  0  0  0  0  0  0  0  0
    9.1053   33.8725   15.8071 H   0  0  0  0  0  0  0  0  0  0  0  0
   10.2742   33.5128   17.1203 H   0  0  0  0  0  0  0  0  0  0  0  0
    8.7624   37.8718   18.7884 H   0  0  0  0  0  0  0  0  0  0  0  0
    9.2553   39.0614   17.5360 H   0  0  0  0  0  0  0  0  0  0  0  0
    7.5865   38.3966   17.5360 H   0  0  0  0  0  0  0  0  0  0  0  0
    8.0986   36.0246   15.3346 H   0  0  0  0  0  0  0  0  0  0  0  0
    7.7103   37.7951   15.4676 H   0  0  0  0  0  0  0  0  0  0  0  0
   12.0375   36.6080   11.1293 H   0  0  0  0  0  0  0  0  0  0  0  0
   10.3043   36.8657   10.5764 H   0  0  0  0  0  0  0  0  0  0  0  0
    9.5487   39.4338   10.4994 H   0  0  0  0  0  0  0  0  0  0  0  0
   10.1822   41.5577    9.3476 H   0  0  0  0  0  0  0  0  0  0  0  0
   12.5443   41.9266    8.6019 H   0  0  0  0  0  0  0  0  0  0  0  0
   14.8282   41.1681    8.4064 H   0  0  0  0  0  0  0  0  0  0  0  0
   16.5905   39.4293    8.7966 H   0  0  0  0  0  0  0  0  0  0  0  0
   15.9977   37.2876    9.9548 H   0  0  0  0  0  0  0  0  0  0  0  0
   13.6520   36.8743   10.7136 H   0  0  0  0  0  0  0  0  0  0  0  0
   13.2517   38.8143   12.4225 H   0  0  0  0  0  0  0  0  0  0  0  0
   14.1827   39.9895   14.4338 H   0  0  0  0  0  0  0  0  0  0  0  0
   10.7021   38.8046   16.7313 H   0  0  0  0  0  0  0  0  0  0  0  0
  1  2  1  0
  2  3  1  0
  3  4  1  0
  4  5  2  0
  4  6  1  0
  6  7  1  0
  6  8  1  0
  8  9  1  0
  9 10  2  0
 10 11  1  0
 11 12  2  0
 11 13  1  0
 10 14  1  0
 14 15  1  0
 15 16  1  0
 16 17  2  0
 17 18  1  0
 18 19  2  0
 19 20  1  0
 20 21  2  0
 21 22  1  0
 22 23  2  0
 23 24  1  0
 24 25  2  0
 14 26  1  0
 26 27  2  0
 27 28  1  0
 28 29  2  0
 29 30  1  0
 29 31  1  0
 31 32  2  0
 32  9  1  0
 25 16  1  0
 32 26  1  0
 25 20  1  0
  1 33  1  0
  1 34  1  0
  1 35  1  0
  2 36  1  0
  2 37  1  0
  7 38  1  0
  7 39  1  0
  7 40  1  0
  8 41  1  0
  8 42  1  0
 15 43  1  0
 15 44  1  0
 17 45  1  0
 18 46  1  0
 19 47  1  0
 21 48  1  0
 22 49  1  0
 23 50  1  0
 24 51  1  0
 27 52  1  0
 28 53  1  0
 31 54  1  0
M  CHG  1  13  -1
M  END
>  <meeko>  (339) 
{"free_energy": -4.65, "intermolecular_energy": -7.04, "internal_energy": -2.08, "cluster_size": 32, "cluster_id": 54, "rank_in_cluster": 27}

$$$$

     RDKit          3D

 54 57  0  0  0  0  0  0  0  0999 V2000
   13.0440   39.0820   14.5720 C   0  0  0  0  0  0  0  0  0  0  0  0
   13.3040   40.1820   13.5400 C   0  0  0  0  0  0  0  0  0  0  0  0
   13.0450   41.4460   14.1300 O   0  0  0  0  0  0  0  0  0  0  0  0
   11.7750   41.8860   14.2550 C   0  0  0  0  0  0  0  0  0  0  0  0
   10.8990   41.2660   14.8600 O   0  0  0  0  0  0  0  0  0  0  0  0
   11.6180   43.1230   13.6160 N   0  0  0  0  0  0  0  0  0  0  0  0
   11.3440   44.3570   14.3610 C   0  0  0  0  0  0  0  0  0  0  0  0
   11.6930   43.2400   12.1540 C   0  0  0  0  0  0  0  0  0  0  0  0
   10.9430   42.1310   11.4530 C   0  0  0  0  0  0  0  0  0  0  0  0
    9.5840   41.8730   11.4480 C   0  0  0  0  0  0  0  0  0  0  0  0
    8.4670   42.6260   12.0980 C   0  0  0  0  0  0  0  0  0  0  0  0
    7.3220   42.1250   12.0950 O   0  0  0  0  0  0  0  0  0  0  0  0
    8.6720   43.7450   12.6190 O   0  0  0  0  0  1  0  0  0  0  0  0
    9.3480   40.6940   10.7080 N   0  0  0  0  0  0  0  0  0  0  0  0
    8.0690   40.0390   10.4220 C   0  0  0  0  0  0  0  0  0  0  0  0
    8.1510   38.5190   10.2310 C   0  0  0  0  0  0  0  0  0  0  0  0
    8.5810   37.6760   11.2860 C   0  0  0  0  0  0  0  0  0  0  0  0
    8.6580   36.2830   11.1150 C   0  0  0  0  0  0  0  0  0  0  0  0
    8.3090   35.7070    9.8830 C   0  0  0  0  0  0  0  0  0  0  0  0
    7.8800   36.5220    8.8190 C   0  0  0  0  0  0  0  0  0  0  0  0
    7.5340   35.9260    7.5890 C   0  0  0  0  0  0  0  0  0  0  0  0
    7.1040   36.7210    6.5120 C   0  0  0  0  0  0  0  0  0  0  0  0
    7.0190   38.1170    6.6640 C   0  0  0  0  0  0  0  0  0  0  0  0
    7.3640   38.7180    7.8890 C   0  0  0  0  0  0  0  0  0  0  0  0
    7.7990   37.9320    8.9840 C   0  0  0  0  0  0  0  0  0  0  0  0
   10.5580   40.1980   10.2400 C   0  0  0  0  0  0  0  0  0  0  0  0
   10.8720   39.0560    9.4750 C   0  0  0  0  0  0  0  0  0  0  0  0
   12.2080   38.7910    9.1280 C   0  0  0  0  0  0  0  0  0  0  0  0
   13.2230   39.6690    9.5440 C   0  0  0  0  0  0  0  0  0  0  0  0
   14.5120   39.4220    9.2090 F   0  0  0  0  0  0  0  0  0  0  0  0
   12.9020   40.8060   10.3100 C   0  0  0  0  0  0  0  0  0  0  0  0
   11.5660   41.0960   10.6820 C   0  0  0  0  0  0  0  0  0  0  0  0
   13.1426   39.4990   15.5851 H   0  0  0  0  0  0  0  0  0  0  0  0
   12.0272   38.6848   14.4363 H   0  0  0  0  0  0  0  0  0  0  0  0
   13.7753   38.2716   14.4363 H   0  0  0  0  0  0  0  0  0  0  0  0
   14.3527   40.1375   13.2111 H   0  0  0  0  0  0  0  0  0  0  0  0
   12.6444   40.0374   12.6717 H   0  0  0  0  0  0  0  0  0  0  0  0
   11.3897   44.1513   15.4406 H   0  0  0  0  0  0  0  0  0  0  0  0
   12.0952   45.1171   14.1004 H   0  0  0  0  0  0  0  0  0  0  0  0
   10.3417   44.7277   14.1004 H   0  0  0  0  0  0  0  0  0  0  0  0
   11.2601   44.2055   11.8533 H   0  0  0  0  0  0  0  0  0  0  0  0
   12.7515   43.1678   11.8635 H   0  0  0  0  0  0  0  0  0  0  0  0
    7.3861   40.2419   11.2602 H   0  0  0  0  0  0  0  0  0  0  0  0
    7.7177   40.4520    9.4649 H   0  0  0  0  0  0  0  0  0  0  0  0
    8.8588   38.1188   12.2538 H   0  0  0  0  0  0  0  0  0  0  0  0
    8.9916   35.6443   11.9461 H   0  0  0  0  0  0  0  0  0  0  0  0
    8.3710   34.6169    9.7493 H   0  0  0  0  0  0  0  0  0  0  0  0
    7.6008   34.8343    7.4715 H   0  0  0  0  0  0  0  0  0  0  0  0
    6.8349   36.2529    5.5536 H   0  0  0  0  0  0  0  0  0  0  0  0
    6.6819   38.7407    5.8229 H   0  0  0  0  0  0  0  0  0  0  0  0
    7.2950   39.8105    7.9972 H   0  0  0  0  0  0  0  0  0  0  0  0
   10.0727   38.3736    9.1503 H   0  0  0  0  0  0  0  0  0  0  0  0
   12.4579   37.9000    8.5333 H   0  0  0  0  0  0  0  0  0  0  0  0
   13.7073   41.4850   10.6270 H   0  0  0  0  0  0  0  0  0  0  0  0
  1  2  1  0
  2  3  1  0
  3  4  1  0
  4  5  2  0
  4  6  1  0
  6  7  1  0
  6  8  1  0
  8  9  1  0
  9 10  2  0
 10 11  1  0
 11 12  2  0
 11 13  1  0
 10 14  1  0
 14 15  1  0
 15 16  1  0
 16 17  2  0
 17 18  1  0
 18 19  2  0
 19 20  1  0
 20 21  2  0
 21 22  1  0
 22 23  2  0
 23 24  1  0
 24 25  2  0
 14 26  1  0
 26 27  2  0
 27 28  1  0
 28 29  2  0
 29 30  1  0
 29 31  1  0
 31 32  2  0
 32  9  1  0
 25 16  1  0
 32 26  1  0
 25 20  1  0
  1 33  1  0
  1 34  1  0
  1 35  1  0
  2 36  1  0
  2 37  1  0
  7 38  1  0
  7 39  1  0
  7 40  1  0
  8 41  1  0
  8 42  1  0
 15 43  1  0
 15 44  1  0
 17 45  1  0
 18 46  1  0
 19 47  1  0
 21 48  1  0
 22 49  1  0
 23 50  1  0
 24 51  1  0
 27 52  1  0
 28 53  1  0
 31 54  1  0
M  CHG  1  13  -1
M  END
>  <meeko>  (340) 
{"free_energy": -6.62, "intermolecular_energy": -9.0, "internal_energy": -1.91, "cluster_size": 210, "cluster_id": 15, "rank_in_cluster": 34}

$$$$

     RDKit          3D

 54 57  0  0  0  0  0  0  0  0999 V2000
    6.5880   35.0100   17.3690 C   0  0  0  0  0  0  0  0  0  0  0  0
    7.1480   36.2340   16.6390 C   0  0  0  0  0  0  0  0  0  0  0  0
    7.2790   37.3060   17.5590 O   0  0  0  0  0  0  0  0  0  0  0  0
    8.4440   37.4960   18.2140 C   0  0  0  0  0  0  0  0  0  0  0  0
    8.5630   37.3780   19.4350 O   0  0  0  0  0  0  0  0  0  0  0  0
    9.4640   37.8330   17.3150 N   0  0  0  0  0  0  0  0  0  0  0  0
    9.7080   39.2170   16.8930 C   0  0  0  0  0  0  0  0  0  0  0  0
   10.3280   36.8030   16.7230 C   0  0  0  0  0  0  0  0  0  0  0  0
   10.5760   37.0400   15.2520 C   0  0  0  0  0  0  0  0  0  0  0  0
   10.1050   36.3210   14.1670 C   0  0  0  0  0  0  0  0  0  0  0  0
    9.1950   35.1350   14.1310 C   0  0  0  0  0  0  0  0  0  0  0  0
    8.1210   35.2210   13.4980 O   0  0  0  0  0  0  0  0  0  0  0  0
    9.4950   34.0840   14.7390 O   0  0  0  0  0  1  0  0  0  0  0  0
   10.6500   36.8720   12.9870 N   0  0  0  0  0  0  0  0  0  0  0  0
   10.4290   36.4510   11.6000 C   0  0  0  0  0  0  0  0  0  0  0  0
    9.5700   37.4090   10.7650 C   0  0  0  0  0  0  0  0  0  0  0  0
    9.5390   38.7970   11.0540 C   0  0  0  0  0  0  0  0  0  0  0  0
    8.7530   39.6780   10.2910 C   0  0  0  0  0  0  0  0  0  0  0  0
    7.9810   39.1870    9.2250 C   0  0  0  0  0  0  0  0  0  0  0  0
    7.9940   37.8130    8.9190 C   0  0  0  0  0  0  0  0  0  0  0  0
    7.2120   37.3380    7.8460 C   0  0  0  0  0  0  0  0  0  0  0  0
    7.2090   35.9700    7.5220 C   0  0  0  0  0  0  0  0  0  0  0  0
    7.9890   35.0720    8.2730 C   0  0  0  0  0  0  0  0  0  0  0  0
    8.7710   35.5400    9.3460 C   0  0  0  0  0  0  0  0  0  0  0  0
    8.7870   36.9150    9.6860 C   0  0  0  0  0  0  0  0  0  0  0  0
   11.4700   37.9430   13.3170 C   0  0  0  0  0  0  0  0  0  0  0  0
   12.2480   38.8100   12.5230 C   0  0  0  0  0  0  0  0  0  0  0  0
   12.9910   39.8370   13.1290 C   0  0  0  0  0  0  0  0  0  0  0  0
   12.9530   39.9940   14.5260 C   0  0  0  0  0  0  0  0  0  0  0  0
   13.6640   40.9840   15.1160 F   0  0  0  0  0  0  0  0  0  0  0  0
   12.1760   39.1220   15.3120 C   0  0  0  0  0  0  0  0  0  0  0  0
   11.4220   38.0740   14.7310 C   0  0  0  0  0  0  0  0  0  0  0  0
    6.6596   35.1665   18.4555 H   0  0  0  0  0  0  0  0  0  0  0  0
    5.5343   34.8658   17.0880 H   0  0  0  0  0  0  0  0  0  0  0  0
    7.1678   34.1184   17.0880 H   0  0  0  0  0  0  0  0  0  0  0  0
    8.1333   35.9906   16.2149 H   0  0  0  0  0  0  0  0  0  0  0  0
    6.4650   36.5248   15.8273 H   0  0  0  0  0  0  0  0  0  0  0  0
    9.8208   39.8566   17.7808 H   0  0  0  0  0  0  0  0  0  0  0  0
   10.6276   39.2600   16.2909 H   0  0  0  0  0  0  0  0  0  0  0  0
    8.8586   39.5719   16.2909 H   0  0  0  0  0  0  0  0  0  0  0  0
   11.2937   36.8057   17.2496 H   0  0  0  0  0  0  0  0  0  0  0  0
    9.8170   35.8344   16.8267 H   0  0  0  0  0  0  0  0  0  0  0  0
   11.4097   36.3565   11.1109 H   0  0  0  0  0  0  0  0  0  0  0  0
    9.8748   35.5021   11.6495 H   0  0  0  0  0  0  0  0  0  0  0  0
   10.1391   39.1902   11.8878 H   0  0  0  0  0  0  0  0  0  0  0  0
    8.7425   40.7520   10.5287 H   0  0  0  0  0  0  0  0  0  0  0  0
    7.3657   39.8769    8.6288 H   0  0  0  0  0  0  0  0  0  0  0  0
    6.6017   38.0409    7.2600 H   0  0  0  0  0  0  0  0  0  0  0  0
    6.5986   35.6029    6.6838 H   0  0  0  0  0  0  0  0  0  0  0  0
    7.9879   34.0012    8.0212 H   0  0  0  0  0  0  0  0  0  0  0  0
    9.3769   34.8294    9.9273 H   0  0  0  0  0  0  0  0  0  0  0  0
   12.2733   38.6826   11.4307 H   0  0  0  0  0  0  0  0  0  0  0  0
   13.5999   40.5154   12.5133 H   0  0  0  0  0  0  0  0  0  0  0  0
   12.1542   39.2581   16.4033 H   0  0  0  0  0  0  0  0  0  0  0  0
  1  2  1  0
  2  3  1  0
  3  4  1  0
  4  5  2  0
  4  6  1  0
  6  7  1  0
  6  8  1  0
  8  9  1  0
  9 10  2  0
 10 11  1  0
 11 12  2  0
 11 13  1  0
 10 14  1  0
 14 15  1  0
 15 16  1  0
 16 17  2  0
 17 18  1  0
 18 19  2  0
 19 20  1  0
 20 21  2  0
 21 22  1  0
 22 23  2  0
 23 24  1  0
 24 25  2  0
 14 26  1  0
 26 27  2  0
 27 28  1  0
 28 29  2  0
 29 30  1  0
 29 31  1  0
 31 32  2  0
 32  9  1  0
 25 16  1  0
 32 26  1  0
 25 20  1  0
  1 33  1  0
  1 34  1  0
  1 35  1  0
  2 36  1  0
  2 37  1  0
  7 38  1  0
  7 39  1  0
  7 40  1  0
  8 41  1  0
  8 42  1  0
 15 43  1  0
 15 44  1  0
 17 45  1  0
 18 46  1  0
 19 47  1  0
 21 48  1  0
 22 49  1  0
 23 50  1  0
 24 51  1  0
 27 52  1  0
 28 53  1  0
 31 54  1  0
M  CHG  1  13  -1
M  END
>  <meeko>  (341) 
{"free_energy": -7.29, "intermolecular_energy": -9.68, "internal_energy": -1.46, "cluster_size": 263, "cluster_id": 1, "rank_in_cluster": 62}

$$$$

     RDKit          3D

 54 57  0  0  0  0  0  0  0  0999 V2000
    8.5230   34.1970   17.7620 C   0  0  0  0  0  0  0  0  0  0  0  0
    7.0530   34.4230   17.4030 C   0  0  0  0  0  0  0  0  0  0  0  0
    6.3060   34.6180   18.5930 O   0  0  0  0  0  0  0  0  0  0  0  0
    6.2350   35.8440   19.1540 C   0  0  0  0  0  0  0  0  0  0  0  0
    6.3160   36.0390   20.3680 O   0  0  0  0  0  0  0  0  0  0  0  0
    6.0680   36.8260   18.1690 N   0  0  0  0  0  0  0  0  0  0  0  0
    5.0440   36.7160   17.1230 C   0  0  0  0  0  0  0  0  0  0  0  0
    6.9350   38.0100   18.1190 C   0  0  0  0  0  0  0  0  0  0  0  0
    8.4010   37.6440   18.0940 C   0  0  0  0  0  0  0  0  0  0  0  0
    9.3500   37.8000   19.0890 C   0  0  0  0  0  0  0  0  0  0  0  0
    9.1970   38.3370   20.4770 C   0  0  0  0  0  0  0  0  0  0  0  0
    9.7550   37.7340   21.4190 O   0  0  0  0  0  0  0  0  0  0  0  0
    8.5090   39.3590   20.6920 O   0  0  0  0  0  1  0  0  0  0  0  0
   10.6020   37.3760   18.5930 N   0  0  0  0  0  0  0  0  0  0  0  0
   11.8930   37.3470   19.2870 C   0  0  0  0  0  0  0  0  0  0  0  0
   13.1070   37.1130   18.3780 C   0  0  0  0  0  0  0  0  0  0  0  0
   13.7440   35.8480   18.3300 C   0  0  0  0  0  0  0  0  0  0  0  0
   14.8570   35.6290   17.4990 C   0  0  0  0  0  0  0  0  0  0  0  0
   15.3550   36.6720   16.7030 C   0  0  0  0  0  0  0  0  0  0  0  0
   14.7400   37.9390   16.7340 C   0  0  0  0  0  0  0  0  0  0  0  0
   15.2540   38.9750   15.9280 C   0  0  0  0  0  0  0  0  0  0  0  0
   14.6570   40.2480   15.9440 C   0  0  0  0  0  0  0  0  0  0  0  0
   13.5420   40.4870   16.7680 C   0  0  0  0  0  0  0  0  0  0  0  0
   13.0250   39.4560   17.5760 C   0  0  0  0  0  0  0  0  0  0  0  0
   13.6140   38.1680   17.5710 C   0  0  0  0  0  0  0  0  0  0  0  0
   10.4530   36.9490   17.2800 C   0  0  0  0  0  0  0  0  0  0  0  0
   11.3820   36.4520   16.3430 C   0  0  0  0  0  0  0  0  0  0  0  0
   10.9510   36.0780   15.0590 C   0  0  0  0  0  0  0  0  0  0  0  0
    9.5930   36.2010   14.7170 C   0  0  0  0  0  0  0  0  0  0  0  0
    9.1700   35.8390   13.4830 F   0  0  0  0  0  0  0  0  0  0  0  0
    8.6720   36.7030   15.6570 C   0  0  0  0  0  0  0  0  0  0  0  0
    9.0780   37.0940   16.9560 C   0  0  0  0  0  0  0  0  0  0  0  0
    8.6348   34.1798   18.8562 H   0  0  0  0  0  0  0  0  0  0  0  0
    8.8591   33.2366   17.3440 H   0  0  0  0  0  0  0  0  0  0  0  0
    9.1320   35.0121   17.3440 H   0  0  0  0  0  0  0  0  0  0  0  0
    6.9635   35.3129   16.7626 H   0  0  0  0  0  0  0  0  0  0  0  0
    6.6657   33.5461   16.8635 H   0  0  0  0  0  0  0  0  0  0  0  0
    4.0534   36.6096   17.5893 H   0  0  0  0  0  0  0  0  0  0  0  0
    5.0597   37.6210   16.4979 H   0  0  0  0  0  0  0  0  0  0  0  0
    5.2515   35.8350   16.4979 H   0  0  0  0  0  0  0  0  0  0  0  0
    6.6979   38.5845   17.2114 H   0  0  0  0  0  0  0  0  0  0  0  0
    6.7504   38.6020   19.0275 H   0  0  0  0  0  0  0  0  0  0  0  0
   12.0288   38.3118   19.7977 H   0  0  0  0  0  0  0  0  0  0  0  0
   11.8541   36.4920   19.9779 H   0  0  0  0  0  0  0  0  0  0  0  0
   13.3621   35.0251   18.9521 H   0  0  0  0  0  0  0  0  0  0  0  0
   15.3375   34.6398   17.4728 H   0  0  0  0  0  0  0  0  0  0  0  0
   16.2265   36.5000   16.0542 H   0  0  0  0  0  0  0  0  0  0  0  0
   16.1256   38.7868   15.2839 H   0  0  0  0  0  0  0  0  0  0  0  0
   15.0605   41.0545   15.3142 H   0  0  0  0  0  0  0  0  0  0  0  0
   13.0728   41.4818   16.7811 H   0  0  0  0  0  0  0  0  0  0  0  0
   12.1540   39.6532   18.2182 H   0  0  0  0  0  0  0  0  0  0  0  0
   12.4431   36.3571   16.6169 H   0  0  0  0  0  0  0  0  0  0  0  0
   11.6728   35.6908   14.3248 H   0  0  0  0  0  0  0  0  0  0  0  0
    7.6125   36.7934   15.3754 H   0  0  0  0  0  0  0  0  0  0  0  0
  1  2  1  0
  2  3  1  0
  3  4  1  0
  4  5  2  0
  4  6  1  0
  6  7  1  0
  6  8  1  0
  8  9  1  0
  9 10  2  0
 10 11  1  0
 11 12  2  0
 11 13  1  0
 10 14  1  0
 14 15  1  0
 15 16  1  0
 16 17  2  0
 17 18  1  0
 18 19  2  0
 19 20  1  0
 20 21  2  0
 21 22  1  0
 22 23  2  0
 23 24  1  0
 24 25  2  0
 14 26  1  0
 26 27  2  0
 27 28  1  0
 28 29  2  0
 29 30  1  0
 29 31  1  0
 31 32  2  0
 32  9  1  0
 25 16  1  0
 32 26  1  0
 25 20  1  0
  1 33  1  0
  1 34  1  0
  1 35  1  0
  2 36  1  0
  2 37  1  0
  7 38  1  0
  7 39  1  0
  7 40  1  0
  8 41  1  0
  8 42  1  0
 15 43  1  0
 15 44  1  0
 17 45  1  0
 18 46  1  0
 19 47  1  0
 21 48  1  0
 22 49  1  0
 23 50  1  0
 24 51  1  0
 27 52  1  0
 28 53  1  0
 31 54  1  0
M  CHG  1  13  -1
M  END
>  <meeko>  (342) 
{"free_energy": -3.54, "intermolecular_energy": -5.93, "internal_energy": -1.62, "cluster_size": 20, "cluster_id": 81, "rank_in_cluster": 20}

$$$$

     RDKit          3D

 54 57  0  0  0  0  0  0  0  0999 V2000
   16.6300   36.9760   11.8570 C   0  0  0  0  0  0  0  0  0  0  0  0
   17.5040   36.9160   13.1120 C   0  0  0  0  0  0  0  0  0  0  0  0
   16.8670   37.6300   14.1590 O   0  0  0  0  0  0  0  0  0  0  0  0
   17.4450   37.7020   15.3780 C   0  0  0  0  0  0  0  0  0  0  0  0
   18.5150   38.2760   15.5870 O   0  0  0  0  0  0  0  0  0  0  0  0
   16.6570   37.0490   16.3350 N   0  0  0  0  0  0  0  0  0  0  0  0
   16.8130   35.6210   16.6300 C   0  0  0  0  0  0  0  0  0  0  0  0
   15.6090   37.7640   17.0750 C   0  0  0  0  0  0  0  0  0  0  0  0
   14.3690   37.9860   16.2410 C   0  0  0  0  0  0  0  0  0  0  0  0
   13.1540   37.3270   16.3020 C   0  0  0  0  0  0  0  0  0  0  0  0
   12.7040   36.2390   17.2250 C   0  0  0  0  0  0  0  0  0  0  0  0
   12.0170   36.5450   18.2230 O   0  0  0  0  0  0  0  0  0  0  0  0
   13.0260   35.0500   17.0120 O   0  0  0  0  0  1  0  0  0  0  0  0
   12.3140   37.8290   15.2850 N   0  0  0  0  0  0  0  0  0  0  0  0
   10.9350   37.4440   14.9710 C   0  0  0  0  0  0  0  0  0  0  0  0
    9.9500   37.5600   16.1410 C   0  0  0  0  0  0  0  0  0  0  0  0
    9.9340   38.7140   16.9650 C   0  0  0  0  0  0  0  0  0  0  0  0
    9.0330   38.8250   18.0380 C   0  0  0  0  0  0  0  0  0  0  0  0
    8.1320   37.7830   18.3100 C   0  0  0  0  0  0  0  0  0  0  0  0
    8.1300   36.6260   17.5080 C   0  0  0  0  0  0  0  0  0  0  0  0
    7.2180   35.5890   17.7950 C   0  0  0  0  0  0  0  0  0  0  0  0
    7.1980   34.4240   17.0080 C   0  0  0  0  0  0  0  0  0  0  0  0
    8.0910   34.2940   15.9290 C   0  0  0  0  0  0  0  0  0  0  0  0
    9.0040   35.3260   15.6370 C   0  0  0  0  0  0  0  0  0  0  0  0
    9.0370   36.5060   16.4190 C   0  0  0  0  0  0  0  0  0  0  0  0
   12.9920   38.8090   14.5720 C   0  0  0  0  0  0  0  0  0  0  0  0
   12.6140   39.5990   13.4670 C   0  0  0  0  0  0  0  0  0  0  0  0
   13.5130   40.5410   12.9390 C   0  0  0  0  0  0  0  0  0  0  0  0
   14.7850   40.6900   13.5170 C   0  0  0  0  0  0  0  0  0  0  0  0
   15.6550   41.5990   13.0140 F   0  0  0  0  0  0  0  0  0  0  0  0
   15.1570   39.8950   14.6180 C   0  0  0  0  0  0  0  0  0  0  0  0
   14.2760   38.9330   15.1680 C   0  0  0  0  0  0  0  0  0  0  0  0
   15.5722   37.0486   12.1500 H   0  0  0  0  0  0  0  0  0  0  0  0
   16.9063   37.8573   11.2595 H   0  0  0  0  0  0  0  0  0  0  0  0
   16.7833   36.0652   11.2595 H   0  0  0  0  0  0  0  0  0  0  0  0
   17.6432   35.8673   13.4135 H   0  0  0  0  0  0  0  0  0  0  0  0
   18.4849   37.3669   12.9009 H   0  0  0  0  0  0  0  0  0  0  0  0
   16.8293   35.4713   17.7196 H   0  0  0  0  0  0  0  0  0  0  0  0
   15.9705   35.0627   16.1958 H   0  0  0  0  0  0  0  0  0  0  0  0
   17.7562   35.2578   16.1958 H   0  0  0  0  0  0  0  0  0  0  0  0
   15.3374   37.1740   17.9628 H   0  0  0  0  0  0  0  0  0  0  0  0
   16.0076   38.7503   17.3550 H   0  0  0  0  0  0  0  0  0  0  0  0
   10.5764   38.0911   14.1570 H   0  0  0  0  0  0  0  0  0  0  0  0
   10.9664   36.3787   14.6985 H   0  0  0  0  0  0  0  0  0  0  0  0
   10.6374   39.5348   16.7613 H   0  0  0  0  0  0  0  0  0  0  0  0
    9.0337   39.7288   18.6651 H   0  0  0  0  0  0  0  0  0  0  0  0
    7.4274   37.8708   19.1501 H   0  0  0  0  0  0  0  0  0  0  0  0
    6.5193   35.6922   18.6383 H   0  0  0  0  0  0  0  0  0  0  0  0
    6.4862   33.6167   17.2354 H   0  0  0  0  0  0  0  0  0  0  0  0
    8.0763   33.3838   15.3115 H   0  0  0  0  0  0  0  0  0  0  0  0
    9.6992   35.2140   14.7919 H   0  0  0  0  0  0  0  0  0  0  0  0
   11.6167   39.4780   13.0189 H   0  0  0  0  0  0  0  0  0  0  0  0
   13.2222   41.1592   12.0768 H   0  0  0  0  0  0  0  0  0  0  0  0
   16.1555   40.0244   15.0611 H   0  0  0  0  0  0  0  0  0  0  0  0
  1  2  1  0
  2  3  1  0
  3  4  1  0
  4  5  2  0
  4  6  1  0
  6  7  1  0
  6  8  1  0
  8  9  1  0
  9 10  2  0
 10 11  1  0
 11 12  2  0
 11 13  1  0
 10 14  1  0
 14 15  1  0
 15 16  1  0
 16 17  2  0
 17 18  1  0
 18 19  2  0
 19 20  1  0
 20 21  2  0
 21 22  1  0
 22 23  2  0
 23 24  1  0
 24 25  2  0
 14 26  1  0
 26 27  2  0
 27 28  1  0
 28 29  2  0
 29 30  1  0
 29 31  1  0
 31 32  2  0
 32  9  1  0
 25 16  1  0
 32 26  1  0
 25 20  1  0
  1 33  1  0
  1 34  1  0
  1 35  1  0
  2 36  1  0
  2 37  1  0
  7 38  1  0
  7 39  1  0
  7 40  1  0
  8 41  1  0
  8 42  1  0
 15 43  1  0
 15 44  1  0
 17 45  1  0
 18 46  1  0
 19 47  1  0
 21 48  1  0
 22 49  1  0
 23 50  1  0
 24 51  1  0
 27 52  1  0
 28 53  1  0
 31 54  1  0
M  CHG  1  13  -1
M  END
>  <meeko>  (343) 
{"free_energy": -3.6, "intermolecular_energy": -5.99, "internal_energy": -2.12, "cluster_size": 1, "cluster_id": 354, "rank_in_cluster": 1}

$$$$

     RDKit          3D

 54 57  0  0  0  0  0  0  0  0999 V2000
   11.0970   36.2580   15.1330 C   0  0  0  0  0  0  0  0  0  0  0  0
   12.2480   36.7360   16.0210 C   0  0  0  0  0  0  0  0  0  0  0  0
   12.7030   37.9970   15.5590 O   0  0  0  0  0  0  0  0  0  0  0  0
   11.8490   38.8370   14.9350 C   0  0  0  0  0  0  0  0  0  0  0  0
   10.6700   38.9750   15.2680 O   0  0  0  0  0  0  0  0  0  0  0  0
   12.4950   39.5080   13.8890 N   0  0  0  0  0  0  0  0  0  0  0  0
   13.6390   38.9260   13.1780 C   0  0  0  0  0  0  0  0  0  0  0  0
   12.0730   40.8510   13.4700 C   0  0  0  0  0  0  0  0  0  0  0  0
   10.8870   40.8130   12.5360 C   0  0  0  0  0  0  0  0  0  0  0  0
   10.6610   39.9770   11.4560 C   0  0  0  0  0  0  0  0  0  0  0  0
   11.4990   38.8580   10.9240 C   0  0  0  0  0  0  0  0  0  0  0  0
   11.5780   37.8010   11.5860 O   0  0  0  0  0  0  0  0  0  0  0  0
   12.1230   38.9850    9.8480 O   0  0  0  0  0  1  0  0  0  0  0  0
    9.4470   40.3500   10.8390 N   0  0  0  0  0  0  0  0  0  0  0  0
    8.7970   39.7490    9.6720 C   0  0  0  0  0  0  0  0  0  0  0  0
    8.5190   38.2440    9.7920 C   0  0  0  0  0  0  0  0  0  0  0  0
    8.7550   37.5570   11.0090 C   0  0  0  0  0  0  0  0  0  0  0  0
    8.5020   36.1790   11.1230 C   0  0  0  0  0  0  0  0  0  0  0  0
    8.0100   35.4620   10.0210 C   0  0  0  0  0  0  0  0  0  0  0  0
    7.7690   36.1210    8.8010 C   0  0  0  0  0  0  0  0  0  0  0  0
    7.2740   35.3850    7.7050 C   0  0  0  0  0  0  0  0  0  0  0  0
    7.0270   36.0220    6.4760 C   0  0  0  0  0  0  0  0  0  0  0  0
    7.2720   37.4010    6.3420 C   0  0  0  0  0  0  0  0  0  0  0  0
    7.7670   38.1410    7.4320 C   0  0  0  0  0  0  0  0  0  0  0  0
    8.0210   37.5150    8.6770 C   0  0  0  0  0  0  0  0  0  0  0  0
    8.8960   41.4240   11.5260 C   0  0  0  0  0  0  0  0  0  0  0  0
    7.7180   42.1700   11.3140 C   0  0  0  0  0  0  0  0  0  0  0  0
    7.3900   43.2230   12.1840 C   0  0  0  0  0  0  0  0  0  0  0  0
    8.2380   43.5250   13.2630 C   0  0  0  0  0  0  0  0  0  0  0  0
    7.9250   44.5370   14.1080 F   0  0  0  0  0  0  0  0  0  0  0  0
    9.4150   42.7790   13.4660 C   0  0  0  0  0  0  0  0  0  0  0  0
    9.7760   41.7160   12.6020 C   0  0  0  0  0  0  0  0  0  0  0  0
   10.2654   35.9127   15.7649 H   0  0  0  0  0  0  0  0  0  0  0  0
   10.7546   37.0883   14.4979 H   0  0  0  0  0  0  0  0  0  0  0  0
   11.4436   35.4294   14.4979 H   0  0  0  0  0  0  0  0  0  0  0  0
   11.8968   36.8298   17.0592 H   0  0  0  0  0  0  0  0  0  0  0  0
   13.0723   36.0088   15.9796 H   0  0  0  0  0  0  0  0  0  0  0  0
   14.3728   38.5527   13.9075 H   0  0  0  0  0  0  0  0  0  0  0  0
   13.2937   38.0940   12.5467 H   0  0  0  0  0  0  0  0  0  0  0  0
   14.1082   39.6950   12.5467 H   0  0  0  0  0  0  0  0  0  0  0  0
   11.8010   41.4314   14.3639 H   0  0  0  0  0  0  0  0  0  0  0  0
   12.9120   41.3146   12.9304 H   0  0  0  0  0  0  0  0  0  0  0  0
    7.8372   40.2624    9.5130 H   0  0  0  0  0  0  0  0  0  0  0  0
    9.4979   39.8678    8.8326 H   0  0  0  0  0  0  0  0  0  0  0  0
    9.1419   38.1104   11.8773 H   0  0  0  0  0  0  0  0  0  0  0  0
    8.6896   35.6624   12.0759 H   0  0  0  0  0  0  0  0  0  0  0  0
    7.8126   34.3836   10.1111 H   0  0  0  0  0  0  0  0  0  0  0  0
    7.0801   34.3075    7.8119 H   0  0  0  0  0  0  0  0  0  0  0  0
    6.6435   35.4441    5.6222 H   0  0  0  0  0  0  0  0  0  0  0  0
    7.0761   37.9022    5.3826 H   0  0  0  0  0  0  0  0  0  0  0  0
    7.9588   39.2179    7.3158 H   0  0  0  0  0  0  0  0  0  0  0  0
    7.0571   41.9276   10.4687 H   0  0  0  0  0  0  0  0  0  0  0  0
    6.4732   43.8087   12.0213 H   0  0  0  0  0  0  0  0  0  0  0  0
   10.0690   43.0274   14.3149 H   0  0  0  0  0  0  0  0  0  0  0  0
  1  2  1  0
  2  3  1  0
  3  4  1  0
  4  5  2  0
  4  6  1  0
  6  7  1  0
  6  8  1  0
  8  9  1  0
  9 10  2  0
 10 11  1  0
 11 12  2  0
 11 13  1  0
 10 14  1  0
 14 15  1  0
 15 16  1  0
 16 17  2  0
 17 18  1  0
 18 19  2  0
 19 20  1  0
 20 21  2  0
 21 22  1  0
 22 23  2  0
 23 24  1  0
 24 25  2  0
 14 26  1  0
 26 27  2  0
 27 28  1  0
 28 29  2  0
 29 30  1  0
 29 31  1  0
 31 32  2  0
 32  9  1  0
 25 16  1  0
 32 26  1  0
 25 20  1  0
  1 33  1  0
  1 34  1  0
  1 35  1  0
  2 36  1  0
  2 37  1  0
  7 38  1  0
  7 39  1  0
  7 40  1  0
  8 41  1  0
  8 42  1  0
 15 43  1  0
 15 44  1  0
 17 45  1  0
 18 46  1  0
 19 47  1  0
 21 48  1  0
 22 49  1  0
 23 50  1  0
 24 51  1  0
 27 52  1  0
 28 53  1  0
 31 54  1  0
M  CHG  1  13  -1
M  END
>  <meeko>  (344) 
{"free_energy": -6.7, "intermolecular_energy": -9.08, "internal_energy": -1.54, "cluster_size": 417, "cluster_id": 2, "rank_in_cluster": 190}

$$$$

     RDKit          3D

 54 57  0  0  0  0  0  0  0  0999 V2000
    8.8580   39.6360    9.9320 C   0  0  0  0  0  0  0  0  0  0  0  0
   10.0200   40.5290    9.4900 C   0  0  0  0  0  0  0  0  0  0  0  0
   11.2050   40.1120   10.1490 O   0  0  0  0  0  0  0  0  0  0  0  0
   12.1080   39.3480    9.4980 C   0  0  0  0  0  0  0  0  0  0  0  0
   11.9060   38.8590    8.3850 O   0  0  0  0  0  0  0  0  0  0  0  0
   13.2760   39.2100   10.2590 N   0  0  0  0  0  0  0  0  0  0  0  0
   14.5090   39.9350    9.9360 C   0  0  0  0  0  0  0  0  0  0  0  0
   13.3300   38.3020   11.4130 C   0  0  0  0  0  0  0  0  0  0  0  0
   11.9730   38.0970   12.0440 C   0  0  0  0  0  0  0  0  0  0  0  0
   11.4960   38.5800   13.2500 C   0  0  0  0  0  0  0  0  0  0  0  0
   12.1650   39.4650   14.2540 C   0  0  0  0  0  0  0  0  0  0  0  0
   13.2730   39.1180   14.7160 O   0  0  0  0  0  0  0  0  0  0  0  0
   11.6160   40.5200   14.6380 O   0  0  0  0  0  1  0  0  0  0  0  0
   10.1940   38.0780   13.4570 N   0  0  0  0  0  0  0  0  0  0  0  0
    9.2920   38.3250   14.5860 C   0  0  0  0  0  0  0  0  0  0  0  0
    9.6520   37.5750   15.8750 C   0  0  0  0  0  0  0  0  0  0  0  0
   10.9500   37.6790   16.4370 C   0  0  0  0  0  0  0  0  0  0  0  0
   11.2840   36.9940   17.6180 C   0  0  0  0  0  0  0  0  0  0  0  0
   10.3280   36.1900   18.2580 C   0  0  0  0  0  0  0  0  0  0  0  0
    9.0330   36.0690   17.7190 C   0  0  0  0  0  0  0  0  0  0  0  0
    8.0850   35.2570   18.3760 C   0  0  0  0  0  0  0  0  0  0  0  0
    6.7860   35.1210   17.8550 C   0  0  0  0  0  0  0  0  0  0  0  0
    6.4320   35.7990   16.6750 C   0  0  0  0  0  0  0  0  0  0  0  0
    7.3730   36.6110   16.0150 C   0  0  0  0  0  0  0  0  0  0  0  0
    8.6860   36.7600   16.5250 C   0  0  0  0  0  0  0  0  0  0  0  0
    9.8370   37.2740   12.3830 C   0  0  0  0  0  0  0  0  0  0  0  0
    8.6670   36.5350   12.1100 C   0  0  0  0  0  0  0  0  0  0  0  0
    8.5650   35.7990   10.9180 C   0  0  0  0  0  0  0  0  0  0  0  0
    9.6310   35.8050   10.0020 C   0  0  0  0  0  0  0  0  0  0  0  0
    9.5380   35.1010    8.8490 F   0  0  0  0  0  0  0  0  0  0  0  0
   10.7980   36.5420   10.2830 C   0  0  0  0  0  0  0  0  0  0  0  0
   10.9330   37.2880   11.4790 C   0  0  0  0  0  0  0  0  0  0  0  0
    8.8171   39.6046   11.0308 H   0  0  0  0  0  0  0  0  0  0  0  0
    7.9136   40.0430    9.5414 H   0  0  0  0  0  0  0  0  0  0  0  0
    9.0082   38.6187    9.5414 H   0  0  0  0  0  0  0  0  0  0  0  0
   10.1552   40.4451    8.4016 H   0  0  0  0  0  0  0  0  0  0  0  0
    9.8015   41.5755    9.7492 H   0  0  0  0  0  0  0  0  0  0  0  0
   15.0142   40.2321   10.8669 H   0  0  0  0  0  0  0  0  0  0  0  0
   15.1741   39.2842    9.3494 H   0  0  0  0  0  0  0  0  0  0  0  0
   14.2636   40.8326    9.3494 H   0  0  0  0  0  0  0  0  0  0  0  0
   13.7158   37.3276   11.0789 H   0  0  0  0  0  0  0  0  0  0  0  0
   13.9878   38.7563   12.1686 H   0  0  0  0  0  0  0  0  0  0  0  0
    9.3035   39.4033   14.8032 H   0  0  0  0  0  0  0  0  0  0  0  0
    8.3032   37.9539   14.2785 H   0  0  0  0  0  0  0  0  0  0  0  0
   11.7065   38.3050   15.9413 H   0  0  0  0  0  0  0  0  0  0  0  0
   12.2951   37.0881   18.0409 H   0  0  0  0  0  0  0  0  0  0  0  0
   10.5909   35.6538   19.1818 H   0  0  0  0  0  0  0  0  0  0  0  0
    8.3630   34.7281   19.2996 H   0  0  0  0  0  0  0  0  0  0  0  0
    6.0491   34.4863   18.3689 H   0  0  0  0  0  0  0  0  0  0  0  0
    5.4161   35.6943   16.2664 H   0  0  0  0  0  0  0  0  0  0  0  0
    7.0855   37.1362   15.0922 H   0  0  0  0  0  0  0  0  0  0  0  0
    7.8353   36.5351   12.8299 H   0  0  0  0  0  0  0  0  0  0  0  0
    7.6547   35.2204   10.7023 H   0  0  0  0  0  0  0  0  0  0  0  0
   11.6238   36.5380    9.5564 H   0  0  0  0  0  0  0  0  0  0  0  0
  1  2  1  0
  2  3  1  0
  3  4  1  0
  4  5  2  0
  4  6  1  0
  6  7  1  0
  6  8  1  0
  8  9  1  0
  9 10  2  0
 10 11  1  0
 11 12  2  0
 11 13  1  0
 10 14  1  0
 14 15  1  0
 15 16  1  0
 16 17  2  0
 17 18  1  0
 18 19  2  0
 19 20  1  0
 20 21  2  0
 21 22  1  0
 22 23  2  0
 23 24  1  0
 24 25  2  0
 14 26  1  0
 26 27  2  0
 27 28  1  0
 28 29  2  0
 29 30  1  0
 29 31  1  0
 31 32  2  0
 32  9  1  0
 25 16  1  0
 32 26  1  0
 25 20  1  0
  1 33  1  0
  1 34  1  0
  1 35  1  0
  2 36  1  0
  2 37  1  0
  7 38  1  0
  7 39  1  0
  7 40  1  0
  8 41  1  0
  8 42  1  0
 15 43  1  0
 15 44  1  0
 17 45  1  0
 18 46  1  0
 19 47  1  0
 21 48  1  0
 22 49  1  0
 23 50  1  0
 24 51  1  0
 27 52  1  0
 28 53  1  0
 31 54  1  0
M  CHG  1  13  -1
M  END
>  <meeko>  (345) 
{"free_energy": -5.2, "intermolecular_energy": -7.59, "internal_energy": -2.05, "cluster_size": 191, "cluster_id": 13, "rank_in_cluster": 139}

$$$$

     RDKit          3D

 54 57  0  0  0  0  0  0  0  0999 V2000
    9.4030   36.3110   12.1060 C   0  0  0  0  0  0  0  0  0  0  0  0
   10.2550   36.9250   13.2190 C   0  0  0  0  0  0  0  0  0  0  0  0
   10.1460   36.1260   14.3860 O   0  0  0  0  0  0  0  0  0  0  0  0
    8.9550   35.9960   15.0090 C   0  0  0  0  0  0  0  0  0  0  0  0
    8.0930   36.8760   15.0120 O   0  0  0  0  0  0  0  0  0  0  0  0
    8.8570   34.7420   15.6240 N   0  0  0  0  0  0  0  0  0  0  0  0
    9.5150   33.5500   15.0780 C   0  0  0  0  0  0  0  0  0  0  0  0
    8.0580   34.5520   16.8430 C   0  0  0  0  0  0  0  0  0  0  0  0
    7.8430   35.8450   17.5930 C   0  0  0  0  0  0  0  0  0  0  0  0
    8.7600   36.5960   18.3080 C   0  0  0  0  0  0  0  0  0  0  0  0
   10.2240   36.3680   18.5150 C   0  0  0  0  0  0  0  0  0  0  0  0
   10.8920   35.8680   17.5840 O   0  0  0  0  0  0  0  0  0  0  0  0
   10.7650   36.6550   19.6050 O   0  0  0  0  0  1  0  0  0  0  0  0
    8.0920   37.6920   18.8930 N   0  0  0  0  0  0  0  0  0  0  0  0
    8.6520   38.7600   19.7270 C   0  0  0  0  0  0  0  0  0  0  0  0
    8.7540   40.1280   19.0400 C   0  0  0  0  0  0  0  0  0  0  0  0
    8.1560   41.2770   19.6170 C   0  0  0  0  0  0  0  0  0  0  0  0
    8.2470   42.5320   18.9910 C   0  0  0  0  0  0  0  0  0  0  0  0
    8.9360   42.6620   17.7750 C   0  0  0  0  0  0  0  0  0  0  0  0
    9.5370   41.5360   17.1810 C   0  0  0  0  0  0  0  0  0  0  0  0
   10.2250   41.6850   15.9590 C   0  0  0  0  0  0  0  0  0  0  0  0
   10.8330   40.5740   15.3470 C   0  0  0  0  0  0  0  0  0  0  0  0
   10.7540   39.3100   15.9580 C   0  0  0  0  0  0  0  0  0  0  0  0
   10.0680   39.1540   17.1780 C   0  0  0  0  0  0  0  0  0  0  0  0
    9.4500   40.2630   17.8080 C   0  0  0  0  0  0  0  0  0  0  0  0
    6.7460   37.6430   18.5540 C   0  0  0  0  0  0  0  0  0  0  0  0
    5.6610   38.4800   18.8870 C   0  0  0  0  0  0  0  0  0  0  0  0
    4.3790   38.1970   18.3890 C   0  0  0  0  0  0  0  0  0  0  0  0
    4.1850   37.0800   17.5580 C   0  0  0  0  0  0  0  0  0  0  0  0
    2.9520   36.8040   17.0720 F   0  0  0  0  0  0  0  0  0  0  0  0
    5.2730   36.2460   17.2330 C   0  0  0  0  0  0  0  0  0  0  0  0
    6.5750   36.5020   17.7250 C   0  0  0  0  0  0  0  0  0  0  0  0
    8.5869   35.7229   12.5511 H   0  0  0  0  0  0  0  0  0  0  0  0
    8.9797   37.1130   11.4834 H   0  0  0  0  0  0  0  0  0  0  0  0
   10.0299   35.6557   11.4834 H   0  0  0  0  0  0  0  0  0  0  0  0
   11.3063   36.9651   12.8977 H   0  0  0  0  0  0  0  0  0  0  0  0
    9.9014   37.9440   13.4350 H   0  0  0  0  0  0  0  0  0  0  0  0
    9.8660   32.9141   15.9041 H   0  0  0  0  0  0  0  0  0  0  0  0
    8.7999   32.9870   14.4602 H   0  0  0  0  0  0  0  0  0  0  0  0
   10.3725   33.8551   14.4602 H   0  0  0  0  0  0  0  0  0  0  0  0
    7.0781   34.1380   16.5630 H   0  0  0  0  0  0  0  0  0  0  0  0
    8.6090   33.8666   17.5038 H   0  0  0  0  0  0  0  0  0  0  0  0
    8.0132   38.8704   20.6157 H   0  0  0  0  0  0  0  0  0  0  0  0
    9.6819   38.4570   19.9668 H   0  0  0  0  0  0  0  0  0  0  0  0
    7.6127   41.1847   20.5690 H   0  0  0  0  0  0  0  0  0  0  0  0
    7.7781   43.4127   19.4541 H   0  0  0  0  0  0  0  0  0  0  0  0
    9.0064   43.6447   17.2857 H   0  0  0  0  0  0  0  0  0  0  0  0
   10.2864   42.6744   15.4823 H   0  0  0  0  0  0  0  0  0  0  0  0
   11.3685   40.6936   14.3936 H   0  0  0  0  0  0  0  0  0  0  0  0
   11.2296   38.4401   15.4815 H   0  0  0  0  0  0  0  0  0  0  0  0
   10.0112   38.1606   17.6470 H   0  0  0  0  0  0  0  0  0  0  0  0
    5.8188   39.3538   19.5363 H   0  0  0  0  0  0  0  0  0  0  0  0
    3.5300   38.8467   18.6481 H   0  0  0  0  0  0  0  0  0  0  0  0
    5.1066   35.3754   16.5815 H   0  0  0  0  0  0  0  0  0  0  0  0
  1  2  1  0
  2  3  1  0
  3  4  1  0
  4  5  2  0
  4  6  1  0
  6  7  1  0
  6  8  1  0
  8  9  1  0
  9 10  2  0
 10 11  1  0
 11 12  2  0
 11 13  1  0
 10 14  1  0
 14 15  1  0
 15 16  1  0
 16 17  2  0
 17 18  1  0
 18 19  2  0
 19 20  1  0
 20 21  2  0
 21 22  1  0
 22 23  2  0
 23 24  1  0
 24 25  2  0
 14 26  1  0
 26 27  2  0
 27 28  1  0
 28 29  2  0
 29 30  1  0
 29 31  1  0
 31 32  2  0
 32  9  1  0
 25 16  1  0
 32 26  1  0
 25 20  1  0
  1 33  1  0
  1 34  1  0
  1 35  1  0
  2 36  1  0
  2 37  1  0
  7 38  1  0
  7 39  1  0
  7 40  1  0
  8 41  1  0
  8 42  1  0
 15 43  1  0
 15 44  1  0
 17 45  1  0
 18 46  1  0
 19 47  1  0
 21 48  1  0
 22 49  1  0
 23 50  1  0
 24 51  1  0
 27 52  1  0
 28 53  1  0
 31 54  1  0
M  CHG  1  13  -1
M  END
>  <meeko>  (346) 
{"free_energy": -4.28, "intermolecular_energy": -6.67, "internal_energy": -2.34, "cluster_size": 6, "cluster_id": 254, "rank_in_cluster": 4}

$$$$

     RDKit          3D

 54 57  0  0  0  0  0  0  0  0999 V2000
    5.5640   36.1630   20.3830 C   0  0  0  0  0  0  0  0  0  0  0  0
    6.9210   36.5780   19.8090 C   0  0  0  0  0  0  0  0  0  0  0  0
    6.7340   37.1160   18.5100 O   0  0  0  0  0  0  0  0  0  0  0  0
    6.3760   36.3080   17.4890 C   0  0  0  0  0  0  0  0  0  0  0  0
    5.2200   36.2130   17.0740 O   0  0  0  0  0  0  0  0  0  0  0  0
    7.4920   35.6250   16.9890 N   0  0  0  0  0  0  0  0  0  0  0  0
    7.3680   34.3610   16.2540 C   0  0  0  0  0  0  0  0  0  0  0  0
    8.8540   36.1310   17.2030 C   0  0  0  0  0  0  0  0  0  0  0  0
    9.3930   36.8530   15.9910 C   0  0  0  0  0  0  0  0  0  0  0  0
    9.6750   36.3470   14.7340 C   0  0  0  0  0  0  0  0  0  0  0  0
    9.4980   34.9600   14.2030 C   0  0  0  0  0  0  0  0  0  0  0  0
    8.4350   34.6750   13.6100 O   0  0  0  0  0  0  0  0  0  0  0  0
   10.3880   34.0970   14.3660 O   0  0  0  0  0  1  0  0  0  0  0  0
   10.2210   37.3790   13.9410 N   0  0  0  0  0  0  0  0  0  0  0  0
   10.6600   37.3180   12.5440 C   0  0  0  0  0  0  0  0  0  0  0  0
    9.7300   38.0200   11.5440 C   0  0  0  0  0  0  0  0  0  0  0  0
    9.5950   39.4300   11.5460 C   0  0  0  0  0  0  0  0  0  0  0  0
    8.7440   40.0770   10.6330 C   0  0  0  0  0  0  0  0  0  0  0  0
    8.0120   39.3240    9.7010 C   0  0  0  0  0  0  0  0  0  0  0  0
    8.1280   37.9210    9.6800 C   0  0  0  0  0  0  0  0  0  0  0  0
    7.3850   37.1810    8.7380 C   0  0  0  0  0  0  0  0  0  0  0  0
    7.4850   35.7790    8.6990 C   0  0  0  0  0  0  0  0  0  0  0  0
    8.3310   35.1130    9.6040 C   0  0  0  0  0  0  0  0  0  0  0  0
    9.0760   35.8470   10.5480 C   0  0  0  0  0  0  0  0  0  0  0  0
    8.9870   37.2600   10.6010 C   0  0  0  0  0  0  0  0  0  0  0  0
   10.2890   38.5460   14.6910 C   0  0  0  0  0  0  0  0  0  0  0  0
   10.7610   39.8380   14.3790 C   0  0  0  0  0  0  0  0  0  0  0  0
   10.7030   40.8570   15.3440 C   0  0  0  0  0  0  0  0  0  0  0  0
   10.1720   40.5820   16.6160 C   0  0  0  0  0  0  0  0  0  0  0  0
   10.1100   41.5620   17.5490 F   0  0  0  0  0  0  0  0  0  0  0  0
    9.7060   39.2890   16.9220 C   0  0  0  0  0  0  0  0  0  0  0  0
    9.7580   38.2400   15.9720 C   0  0  0  0  0  0  0  0  0  0  0  0
    5.6108   36.1773   21.4819 H   0  0  0  0  0  0  0  0  0  0  0  0
    4.7903   36.8656   20.0398 H   0  0  0  0  0  0  0  0  0  0  0  0
    5.3157   35.1478   20.0398 H   0  0  0  0  0  0  0  0  0  0  0  0
    7.3785   37.3380   20.4594 H   0  0  0  0  0  0  0  0  0  0  0  0
    7.5823   35.7007   19.7536 H   0  0  0  0  0  0  0  0  0  0  0  0
    7.2863   33.5282   16.9680 H   0  0  0  0  0  0  0  0  0  0  0  0
    6.4685   34.3913   15.6215 H   0  0  0  0  0  0  0  0  0  0  0  0
    8.2562   34.2160   15.6215 H   0  0  0  0  0  0  0  0  0  0  0  0
    8.8431   36.8277   18.0542 H   0  0  0  0  0  0  0  0  0  0  0  0
    9.5072   35.2680   17.3993 H   0  0  0  0  0  0  0  0  0  0  0  0
   11.6521   37.7883   12.4765 H   0  0  0  0  0  0  0  0  0  0  0  0
   10.6638   36.2533   12.2675 H   0  0  0  0  0  0  0  0  0  0  0  0
   10.1646   40.0277   12.2728 H   0  0  0  0  0  0  0  0  0  0  0  0
    8.6516   41.1730   10.6488 H   0  0  0  0  0  0  0  0  0  0  0  0
    7.3470   39.8309    8.9863 H   0  0  0  0  0  0  0  0  0  0  0  0
    6.7240   37.7027    8.0302 H   0  0  0  0  0  0  0  0  0  0  0  0
    6.9033   35.2048    7.9629 H   0  0  0  0  0  0  0  0  0  0  0  0
    8.4112   34.0163    9.5747 H   0  0  0  0  0  0  0  0  0  0  0  0
    9.7343   35.3169   11.2520 H   0  0  0  0  0  0  0  0  0  0  0  0
   11.1740   40.0473   13.3812 H   0  0  0  0  0  0  0  0  0  0  0  0
   11.0715   41.8656   15.1053 H   0  0  0  0  0  0  0  0  0  0  0  0
    9.2923   39.0892   17.9214 H   0  0  0  0  0  0  0  0  0  0  0  0
  1  2  1  0
  2  3  1  0
  3  4  1  0
  4  5  2  0
  4  6  1  0
  6  7  1  0
  6  8  1  0
  8  9  1  0
  9 10  2  0
 10 11  1  0
 11 12  2  0
 11 13  1  0
 10 14  1  0
 14 15  1  0
 15 16  1  0
 16 17  2  0
 17 18  1  0
 18 19  2  0
 19 20  1  0
 20 21  2  0
 21 22  1  0
 22 23  2  0
 23 24  1  0
 24 25  2  0
 14 26  1  0
 26 27  2  0
 27 28  1  0
 28 29  2  0
 29 30  1  0
 29 31  1  0
 31 32  2  0
 32  9  1  0
 25 16  1  0
 32 26  1  0
 25 20  1  0
  1 33  1  0
  1 34  1  0
  1 35  1  0
  2 36  1  0
  2 37  1  0
  7 38  1  0
  7 39  1  0
  7 40  1  0
  8 41  1  0
  8 42  1  0
 15 43  1  0
 15 44  1  0
 17 45  1  0
 18 46  1  0
 19 47  1  0
 21 48  1  0
 22 49  1  0
 23 50  1  0
 24 51  1  0
 27 52  1  0
 28 53  1  0
 31 54  1  0
M  CHG  1  13  -1
M  END
>  <meeko>  (347) 
{"free_energy": -7.2, "intermolecular_energy": -9.58, "internal_energy": -1.67, "cluster_size": 163, "cluster_id": 4, "rank_in_cluster": 19}

$$$$

     RDKit          3D

 54 57  0  0  0  0  0  0  0  0999 V2000
   11.4590   32.8030   15.3800 C   0  0  0  0  0  0  0  0  0  0  0  0
   11.1670   34.2960   15.2120 C   0  0  0  0  0  0  0  0  0  0  0  0
   10.6680   34.8150   16.4340 O   0  0  0  0  0  0  0  0  0  0  0  0
   10.8370   36.1210   16.7340 C   0  0  0  0  0  0  0  0  0  0  0  0
   11.9430   36.6570   16.8240 O   0  0  0  0  0  0  0  0  0  0  0  0
    9.5980   36.7480   16.9130 N   0  0  0  0  0  0  0  0  0  0  0  0
    8.8530   36.6590   18.1740 C   0  0  0  0  0  0  0  0  0  0  0  0
    8.9650   37.5090   15.8270 C   0  0  0  0  0  0  0  0  0  0  0  0
    9.7200   37.3820   14.5250 C   0  0  0  0  0  0  0  0  0  0  0  0
    9.5280   36.4760   13.4970 C   0  0  0  0  0  0  0  0  0  0  0  0
    8.5070   35.3910   13.3590 C   0  0  0  0  0  0  0  0  0  0  0  0
    8.3410   34.5990   14.3120 O   0  0  0  0  0  0  0  0  0  0  0  0
    7.8480   35.2670   12.3040 O   0  0  0  0  0  1  0  0  0  0  0  0
   10.5110   36.6960   12.5080 N   0  0  0  0  0  0  0  0  0  0  0  0
   10.6990   35.9890   11.2380 C   0  0  0  0  0  0  0  0  0  0  0  0
    9.5910   36.2190   10.2020 C   0  0  0  0  0  0  0  0  0  0  0  0
    8.9340   35.1250    9.5860 C   0  0  0  0  0  0  0  0  0  0  0  0
    7.9190   35.3310    8.6370 C   0  0  0  0  0  0  0  0  0  0  0  0
    7.5430   36.6370    8.2830 C   0  0  0  0  0  0  0  0  0  0  0  0
    8.1820   37.7400    8.8780 C   0  0  0  0  0  0  0  0  0  0  0  0
    7.7920   39.0450    8.5110 C   0  0  0  0  0  0  0  0  0  0  0  0
    8.4170   40.1620    9.0920 C   0  0  0  0  0  0  0  0  0  0  0  0
    9.4340   39.9770   10.0450 C   0  0  0  0  0  0  0  0  0  0  0  0
    9.8290   38.6770   10.4160 C   0  0  0  0  0  0  0  0  0  0  0  0
    9.2100   37.5400    9.8410 C   0  0  0  0  0  0  0  0  0  0  0  0
   11.3330   37.7430   12.9050 C   0  0  0  0  0  0  0  0  0  0  0  0
   12.4550   38.3400   12.2950 C   0  0  0  0  0  0  0  0  0  0  0  0
   13.1070   39.4130   12.9240 C   0  0  0  0  0  0  0  0  0  0  0  0
   12.6330   39.8880   14.1600 C   0  0  0  0  0  0  0  0  0  0  0  0
   13.2550   40.9250   14.7700 F   0  0  0  0  0  0  0  0  0  0  0  0
   11.5140   39.2850   14.7640 C   0  0  0  0  0  0  0  0  0  0  0  0
   10.8400   38.1970   14.1580 C   0  0  0  0  0  0  0  0  0  0  0  0
   11.5071   32.5571   16.4511 H   0  0  0  0  0  0  0  0  0  0  0  0
   10.6584   32.2171   14.9048 H   0  0  0  0  0  0  0  0  0  0  0  0
   12.4213   32.5619   14.9048 H   0  0  0  0  0  0  0  0  0  0  0  0
   12.0930   34.8234   14.9393 H   0  0  0  0  0  0  0  0  0  0  0  0
   10.4196   34.4388   14.4177 H   0  0  0  0  0  0  0  0  0  0  0  0
    9.5518   36.7425   19.0194 H   0  0  0  0  0  0  0  0  0  0  0  0
    8.1178   37.4757   18.2240 H   0  0  0  0  0  0  0  0  0  0  0  0
    8.3309   35.6921   18.2240 H   0  0  0  0  0  0  0  0  0  0  0  0
    7.9416   37.1331   15.6810 H   0  0  0  0  0  0  0  0  0  0  0  0
    8.9647   38.5707   16.1147 H   0  0  0  0  0  0  0  0  0  0  0  0
   11.6515   36.3212   10.7994 H   0  0  0  0  0  0  0  0  0  0  0  0
   10.6812   34.9153   11.4764 H   0  0  0  0  0  0  0  0  0  0  0  0
    9.2233   34.0984    9.8551 H   0  0  0  0  0  0  0  0  0  0  0  0
    7.4186   34.4693    8.1711 H   0  0  0  0  0  0  0  0  0  0  0  0
    6.7481   36.7976    7.5398 H   0  0  0  0  0  0  0  0  0  0  0  0
    6.9950   39.1892    7.7667 H   0  0  0  0  0  0  0  0  0  0  0  0
    8.1113   41.1780    8.8019 H   0  0  0  0  0  0  0  0  0  0  0  0
    9.9226   40.8501   10.5022 H   0  0  0  0  0  0  0  0  0  0  0  0
   10.6273   38.5431   11.1608 H   0  0  0  0  0  0  0  0  0  0  0  0
   12.8195   37.9656   11.3270 H   0  0  0  0  0  0  0  0  0  0  0  0
   13.9843   39.8797   12.4522 H   0  0  0  0  0  0  0  0  0  0  0  0
   11.1542   39.6681   15.7303 H   0  0  0  0  0  0  0  0  0  0  0  0
  1  2  1  0
  2  3  1  0
  3  4  1  0
  4  5  2  0
  4  6  1  0
  6  7  1  0
  6  8  1  0
  8  9  1  0
  9 10  2  0
 10 11  1  0
 11 12  2  0
 11 13  1  0
 10 14  1  0
 14 15  1  0
 15 16  1  0
 16 17  2  0
 17 18  1  0
 18 19  2  0
 19 20  1  0
 20 21  2  0
 21 22  1  0
 22 23  2  0
 23 24  1  0
 24 25  2  0
 14 26  1  0
 26 27  2  0
 27 28  1  0
 28 29  2  0
 29 30  1  0
 29 31  1  0
 31 32  2  0
 32  9  1  0
 25 16  1  0
 32 26  1  0
 25 20  1  0
  1 33  1  0
  1 34  1  0
  1 35  1  0
  2 36  1  0
  2 37  1  0
  7 38  1  0
  7 39  1  0
  7 40  1  0
  8 41  1  0
  8 42  1  0
 15 43  1  0
 15 44  1  0
 17 45  1  0
 18 46  1  0
 19 47  1  0
 21 48  1  0
 22 49  1  0
 23 50  1  0
 24 51  1  0
 27 52  1  0
 28 53  1  0
 31 54  1  0
M  CHG  1  13  -1
M  END
>  <meeko>  (348) 
{"free_energy": -6.98, "intermolecular_energy": -9.37, "internal_energy": -2.33, "cluster_size": 263, "cluster_id": 1, "rank_in_cluster": 103}

$$$$

     RDKit          3D

 54 57  0  0  0  0  0  0  0  0999 V2000
   12.0380   36.1320   10.5520 C   0  0  0  0  0  0  0  0  0  0  0  0
   10.5290   36.2790   10.3360 C   0  0  0  0  0  0  0  0  0  0  0  0
    9.9120   36.6170   11.5680 O   0  0  0  0  0  0  0  0  0  0  0  0
    9.2630   37.7930   11.6980 C   0  0  0  0  0  0  0  0  0  0  0  0
    9.4110   38.5470   12.6620 O   0  0  0  0  0  0  0  0  0  0  0  0
    8.4260   38.0170   10.5970 N   0  0  0  0  0  0  0  0  0  0  0  0
    7.6860   36.9310    9.9460 C   0  0  0  0  0  0  0  0  0  0  0  0
    8.2710   39.3590   10.0180 C   0  0  0  0  0  0  0  0  0  0  0  0
    9.2850   40.3370   10.5620 C   0  0  0  0  0  0  0  0  0  0  0  0
   10.6670   40.2690   10.5160 C   0  0  0  0  0  0  0  0  0  0  0  0
   11.5500   39.2360    9.8900 C   0  0  0  0  0  0  0  0  0  0  0  0
   11.2800   38.8330    8.7390 O   0  0  0  0  0  0  0  0  0  0  0  0
   12.5290   38.7720   10.5160 O   0  0  0  0  0  1  0  0  0  0  0  0
   11.2000   41.3760   11.2100 N   0  0  0  0  0  0  0  0  0  0  0  0
   12.6070   41.7300   11.4170 C   0  0  0  0  0  0  0  0  0  0  0  0
   13.5360   41.3890   10.2440 C   0  0  0  0  0  0  0  0  0  0  0  0
   14.6690   40.5590   10.4330 C   0  0  0  0  0  0  0  0  0  0  0  0
   15.5230   40.2440    9.3620 C   0  0  0  0  0  0  0  0  0  0  0  0
   15.2610   40.7560    8.0810 C   0  0  0  0  0  0  0  0  0  0  0  0
   14.1430   41.5840    7.8680 C   0  0  0  0  0  0  0  0  0  0  0  0
   13.8950   42.0900    6.5750 C   0  0  0  0  0  0  0  0  0  0  0  0
   12.7850   42.9200    6.3390 C   0  0  0  0  0  0  0  0  0  0  0  0
   11.9180   43.2460    7.3970 C   0  0  0  0  0  0  0  0  0  0  0  0
   12.1600   42.7450    8.6910 C   0  0  0  0  0  0  0  0  0  0  0  0
   13.2740   41.9070    8.9460 C   0  0  0  0  0  0  0  0  0  0  0  0
   10.1580   42.1530   11.7010 C   0  0  0  0  0  0  0  0  0  0  0  0
   10.1500   43.3390   12.4640 C   0  0  0  0  0  0  0  0  0  0  0  0
    8.9280   43.9310   12.8240 C   0  0  0  0  0  0  0  0  0  0  0  0
    7.7200   43.3370   12.4210 C   0  0  0  0  0  0  0  0  0  0  0  0
    6.5380   43.9050   12.7620 F   0  0  0  0  0  0  0  0  0  0  0  0
    7.7360   42.1500   11.6630 C   0  0  0  0  0  0  0  0  0  0  0  0
    8.9520   41.5260   11.2900 C   0  0  0  0  0  0  0  0  0  0  0  0
   12.2537   36.1110   11.6304 H   0  0  0  0  0  0  0  0  0  0  0  0
   12.3850   35.1958   10.0904 H   0  0  0  0  0  0  0  0  0  0  0  0
   12.5592   36.9836   10.0904 H   0  0  0  0  0  0  0  0  0  0  0  0
   10.3385   37.0731    9.5991 H   0  0  0  0  0  0  0  0  0  0  0  0
   10.1149   35.3305    9.9634 H   0  0  0  0  0  0  0  0  0  0  0  0
    7.2418   36.2790   10.7126 H   0  0  0  0  0  0  0  0  0  0  0  0
    6.8884   37.3554    9.3186 H   0  0  0  0  0  0  0  0  0  0  0  0
    8.3728   36.3440    9.3186 H   0  0  0  0  0  0  0  0  0  0  0  0
    8.3951   39.2904    8.9272 H   0  0  0  0  0  0  0  0  0  0  0  0
    7.2697   39.7279   10.2852 H   0  0  0  0  0  0  0  0  0  0  0  0
   12.6645   42.8140   11.5950 H   0  0  0  0  0  0  0  0  0  0  0  0
   12.9545   41.1307   12.2714 H   0  0  0  0  0  0  0  0  0  0  0  0
   14.8834   40.1550   11.4334 H   0  0  0  0  0  0  0  0  0  0  0  0
   16.3966   39.5964    9.5273 H   0  0  0  0  0  0  0  0  0  0  0  0
   15.9301   40.5098    7.2433 H   0  0  0  0  0  0  0  0  0  0  0  0
   14.5731   41.8341    5.7475 H   0  0  0  0  0  0  0  0  0  0  0  0
   12.5953   43.3133    5.3294 H   0  0  0  0  0  0  0  0  0  0  0  0
   11.0483   43.8941    7.2136 H   0  0  0  0  0  0  0  0  0  0  0  0
   11.4769   43.0070    9.5124 H   0  0  0  0  0  0  0  0  0  0  0  0
   11.0988   43.7996   12.7766 H   0  0  0  0  0  0  0  0  0  0  0  0
    8.9168   44.8560   13.4191 H   0  0  0  0  0  0  0  0  0  0  0  0
    6.7825   41.6971   11.3535 H   0  0  0  0  0  0  0  0  0  0  0  0
  1  2  1  0
  2  3  1  0
  3  4  1  0
  4  5  2  0
  4  6  1  0
  6  7  1  0
  6  8  1  0
  8  9  1  0
  9 10  2  0
 10 11  1  0
 11 12  2  0
 11 13  1  0
 10 14  1  0
 14 15  1  0
 15 16  1  0
 16 17  2  0
 17 18  1  0
 18 19  2  0
 19 20  1  0
 20 21  2  0
 21 22  1  0
 22 23  2  0
 23 24  1  0
 24 25  2  0
 14 26  1  0
 26 27  2  0
 27 28  1  0
 28 29  2  0
 29 30  1  0
 29 31  1  0
 31 32  2  0
 32  9  1  0
 25 16  1  0
 32 26  1  0
 25 20  1  0
  1 33  1  0
  1 34  1  0
  1 35  1  0
  2 36  1  0
  2 37  1  0
  7 38  1  0
  7 39  1  0
  7 40  1  0
  8 41  1  0
  8 42  1  0
 15 43  1  0
 15 44  1  0
 17 45  1  0
 18 46  1  0
 19 47  1  0
 21 48  1  0
 22 49  1  0
 23 50  1  0
 24 51  1  0
 27 52  1  0
 28 53  1  0
 31 54  1  0
M  CHG  1  13  -1
M  END
>  <meeko>  (349) 
{"free_energy": -5.06, "intermolecular_energy": -7.44, "internal_energy": -1.69, "cluster_size": 87, "cluster_id": 14, "rank_in_cluster": 53}

$$$$

     RDKit          3D

 54 57  0  0  0  0  0  0  0  0999 V2000
   16.6950   39.9120    9.6750 C   0  0  0  0  0  0  0  0  0  0  0  0
   15.8420   40.6360    8.6300 C   0  0  0  0  0  0  0  0  0  0  0  0
   14.5160   40.7660    9.1180 O   0  0  0  0  0  0  0  0  0  0  0  0
   13.6420   39.7460    8.9830 C   0  0  0  0  0  0  0  0  0  0  0  0
   13.2740   39.3100    7.8910 O   0  0  0  0  0  0  0  0  0  0  0  0
   13.2380   39.2750   10.2380 N   0  0  0  0  0  0  0  0  0  0  0  0
   13.2350   37.8460   10.5710 C   0  0  0  0  0  0  0  0  0  0  0  0
   12.7650   40.1940   11.2820 C   0  0  0  0  0  0  0  0  0  0  0  0
   11.2600   40.3170   11.2980 C   0  0  0  0  0  0  0  0  0  0  0  0
   10.3140   39.4430   10.7900 C   0  0  0  0  0  0  0  0  0  0  0  0
   10.5010   38.1210   10.1160 C   0  0  0  0  0  0  0  0  0  0  0  0
   10.6470   38.0940    8.8750 O   0  0  0  0  0  0  0  0  0  0  0  0
   10.4930   37.0610   10.7800 O   0  0  0  0  0  1  0  0  0  0  0  0
    9.0320   40.0030   10.9770 N   0  0  0  0  0  0  0  0  0  0  0  0
    7.7300   39.4390   10.6100 C   0  0  0  0  0  0  0  0  0  0  0  0
    7.7290   38.6000    9.3250 C   0  0  0  0  0  0  0  0  0  0  0  0
    7.6900   39.2220    8.0530 C   0  0  0  0  0  0  0  0  0  0  0  0
    7.6890   38.4580    6.8730 C   0  0  0  0  0  0  0  0  0  0  0  0
    7.7250   37.0560    6.9440 C   0  0  0  0  0  0  0  0  0  0  0  0
    7.7630   36.4150    8.1970 C   0  0  0  0  0  0  0  0  0  0  0  0
    7.7980   35.0060    8.2500 C   0  0  0  0  0  0  0  0  0  0  0  0
    7.8360   34.3440    9.4900 C   0  0  0  0  0  0  0  0  0  0  0  0
    7.8390   35.0910   10.6810 C   0  0  0  0  0  0  0  0  0  0  0  0
    7.8020   36.4970   10.6350 C   0  0  0  0  0  0  0  0  0  0  0  0
    7.7650   37.1810    9.3950 C   0  0  0  0  0  0  0  0  0  0  0  0
    9.1580   41.2360   11.6040 C   0  0  0  0  0  0  0  0  0  0  0  0
    8.1990   42.1920   11.9980 C   0  0  0  0  0  0  0  0  0  0  0  0
    8.6100   43.3750   12.6350 C   0  0  0  0  0  0  0  0  0  0  0  0
    9.9770   43.5970   12.8780 C   0  0  0  0  0  0  0  0  0  0  0  0
   10.3790   44.7330   13.4950 F   0  0  0  0  0  0  0  0  0  0  0  0
   10.9280   42.6390   12.4790 C   0  0  0  0  0  0  0  0  0  0  0  0
   10.5450   41.4400   11.8290 C   0  0  0  0  0  0  0  0  0  0  0  0
   16.3596   40.1967   10.6832 H   0  0  0  0  0  0  0  0  0  0  0  0
   16.5880   38.8248    9.5463 H   0  0  0  0  0  0  0  0  0  0  0  0
   17.7503   40.1943    9.5463 H   0  0  0  0  0  0  0  0  0  0  0  0
   16.2631   41.6341    8.4390 H   0  0  0  0  0  0  0  0  0  0  0  0
   15.8360   40.0585    7.6938 H   0  0  0  0  0  0  0  0  0  0  0  0
   13.2347   37.7243   11.6642 H   0  0  0  0  0  0  0  0  0  0  0  0
   12.3359   37.3731   10.1492 H   0  0  0  0  0  0  0  0  0  0  0  0
   14.1321   37.3693   10.1492 H   0  0  0  0  0  0  0  0  0  0  0  0
   13.0998   39.8200   12.2608 H   0  0  0  0  0  0  0  0  0  0  0  0
   13.1818   41.1893   11.0684 H   0  0  0  0  0  0  0  0  0  0  0  0
    7.3897   38.7983   11.4368 H   0  0  0  0  0  0  0  0  0  0  0  0
    7.0652   40.2946   10.4206 H   0  0  0  0  0  0  0  0  0  0  0  0
    7.6600   40.3196    7.9876 H   0  0  0  0  0  0  0  0  0  0  0  0
    7.6600   38.9585    5.8939 H   0  0  0  0  0  0  0  0  0  0  0  0
    7.7235   36.4584    6.0205 H   0  0  0  0  0  0  0  0  0  0  0  0
    7.7956   34.4226    7.3175 H   0  0  0  0  0  0  0  0  0  0  0  0
    7.8633   33.2450    9.5280 H   0  0  0  0  0  0  0  0  0  0  0  0
    7.8704   34.5748   11.6519 H   0  0  0  0  0  0  0  0  0  0  0  0
    7.8018   37.0717   11.5729 H   0  0  0  0  0  0  0  0  0  0  0  0
    7.1308   42.0118   11.8069 H   0  0  0  0  0  0  0  0  0  0  0  0
    7.8655   44.1242   12.9423 H   0  0  0  0  0  0  0  0  0  0  0  0
   11.9939   42.8258   12.6766 H   0  0  0  0  0  0  0  0  0  0  0  0
  1  2  1  0
  2  3  1  0
  3  4  1  0
  4  5  2  0
  4  6  1  0
  6  7  1  0
  6  8  1  0
  8  9  1  0
  9 10  2  0
 10 11  1  0
 11 12  2  0
 11 13  1  0
 10 14  1  0
 14 15  1  0
 15 16  1  0
 16 17  2  0
 17 18  1  0
 18 19  2  0
 19 20  1  0
 20 21  2  0
 21 22  1  0
 22 23  2  0
 23 24  1  0
 24 25  2  0
 14 26  1  0
 26 27  2  0
 27 28  1  0
 28 29  2  0
 29 30  1  0
 29 31  1  0
 31 32  2  0
 32  9  1  0
 25 16  1  0
 32 26  1  0
 25 20  1  0
  1 33  1  0
  1 34  1  0
  1 35  1  0
  2 36  1  0
  2 37  1  0
  7 38  1  0
  7 39  1  0
  7 40  1  0
  8 41  1  0
  8 42  1  0
 15 43  1  0
 15 44  1  0
 17 45  1  0
 18 46  1  0
 19 47  1  0
 21 48  1  0
 22 49  1  0
 23 50  1  0
 24 51  1  0
 27 52  1  0
 28 53  1  0
 31 54  1  0
M  CHG  1  13  -1
M  END
>  <meeko>  (350) 
{"free_energy": -5.78, "intermolecular_energy": -8.16, "internal_energy": -1.07, "cluster_size": 417, "cluster_id": 2, "rank_in_cluster": 311}

$$$$

     RDKit          3D

 54 57  0  0  0  0  0  0  0  0999 V2000
   18.6290   41.2320   11.4320 C   0  0  0  0  0  0  0  0  0  0  0  0
   19.0910   40.6170   12.7560 C   0  0  0  0  0  0  0  0  0  0  0  0
   18.7380   39.2430   12.7810 O   0  0  0  0  0  0  0  0  0  0  0  0
   18.0990   38.6890   11.7270 C   0  0  0  0  0  0  0  0  0  0  0  0
   18.6490   38.4530   10.6500 O   0  0  0  0  0  0  0  0  0  0  0  0
   16.7610   38.4290   12.0460 N   0  0  0  0  0  0  0  0  0  0  0  0
   16.1390   37.1230   11.7970 C   0  0  0  0  0  0  0  0  0  0  0  0
   15.8980   39.4680   12.6230 C   0  0  0  0  0  0  0  0  0  0  0  0
   14.5570   39.5470   11.9330 C   0  0  0  0  0  0  0  0  0  0  0  0
   13.3000   39.2810   12.4480 C   0  0  0  0  0  0  0  0  0  0  0  0
   12.9030   38.8750   13.8320 C   0  0  0  0  0  0  0  0  0  0  0  0
   11.7070   38.9960   14.1730 O   0  0  0  0  0  0  0  0  0  0  0  0
   13.7550   38.4410   14.6380 O   0  0  0  0  0  1  0  0  0  0  0  0
   12.3470   39.4270   11.4180 N   0  0  0  0  0  0  0  0  0  0  0  0
   10.8930   39.2570   11.4920 C   0  0  0  0  0  0  0  0  0  0  0  0
   10.3650   37.9490   10.8870 C   0  0  0  0  0  0  0  0  0  0  0  0
   10.8450   36.6940   11.3380 C   0  0  0  0  0  0  0  0  0  0  0  0
   10.3640   35.4940   10.7870 C   0  0  0  0  0  0  0  0  0  0  0  0
    9.3940   35.5270    9.7720 C   0  0  0  0  0  0  0  0  0  0  0  0
    8.9030   36.7610    9.3050 C   0  0  0  0  0  0  0  0  0  0  0  0
    7.9290   36.7740    8.2850 C   0  0  0  0  0  0  0  0  0  0  0  0
    7.4240   37.9950    7.8040 C   0  0  0  0  0  0  0  0  0  0  0  0
    7.8920   39.2070    8.3430 C   0  0  0  0  0  0  0  0  0  0  0  0
    8.8640   39.2000    9.3610 C   0  0  0  0  0  0  0  0  0  0  0  0
    9.3840   37.9790    9.8580 C   0  0  0  0  0  0  0  0  0  0  0  0
   12.9940   39.7860   10.2430 C   0  0  0  0  0  0  0  0  0  0  0  0
   12.5100   40.0360    8.9420 C   0  0  0  0  0  0  0  0  0  0  0  0
   13.4030   40.3990    7.9200 C   0  0  0  0  0  0  0  0  0  0  0  0
   14.7760   40.5130    8.2020 C   0  0  0  0  0  0  0  0  0  0  0  0
   15.6410   40.8660    7.2220 F   0  0  0  0  0  0  0  0  0  0  0  0
   15.2520   40.2580    9.5030 C   0  0  0  0  0  0  0  0  0  0  0  0
   14.3770   39.8840   10.5510 C   0  0  0  0  0  0  0  0  0  0  0  0
   17.9798   42.0962   11.6359 H   0  0  0  0  0  0  0  0  0  0  0  0
   19.5058   41.5602   10.8545 H   0  0  0  0  0  0  0  0  0  0  0  0
   18.0696   40.4813   10.8545 H   0  0  0  0  0  0  0  0  0  0  0  0
   20.1825   40.7181   12.8475 H   0  0  0  0  0  0  0  0  0  0  0  0
   18.6061   41.1383   13.5945 H   0  0  0  0  0  0  0  0  0  0  0  0
   15.9080   36.6379   12.7569 H   0  0  0  0  0  0  0  0  0  0  0  0
   15.2106   37.2624   11.2238 H   0  0  0  0  0  0  0  0  0  0  0  0
   16.8323   36.4900   11.2238 H   0  0  0  0  0  0  0  0  0  0  0  0
   15.7355   39.2422   13.6872 H   0  0  0  0  0  0  0  0  0  0  0  0
   16.4024   40.4365   12.4905 H   0  0  0  0  0  0  0  0  0  0  0  0
   10.5987   39.2870   12.5515 H   0  0  0  0  0  0  0  0  0  0  0  0
   10.4558   40.0718   10.8961 H   0  0  0  0  0  0  0  0  0  0  0  0
   11.6058   36.6587   12.1316 H   0  0  0  0  0  0  0  0  0  0  0  0
   10.7472   34.5291   11.1506 H   0  0  0  0  0  0  0  0  0  0  0  0
    9.0174   34.5875    9.3413 H   0  0  0  0  0  0  0  0  0  0  0  0
    7.5632   35.8257    7.8643 H   0  0  0  0  0  0  0  0  0  0  0  0
    6.6647   38.0023    7.0081 H   0  0  0  0  0  0  0  0  0  0  0  0
    7.4973   40.1628    7.9680 H   0  0  0  0  0  0  0  0  0  0  0  0
    9.2241   40.1532    9.7755 H   0  0  0  0  0  0  0  0  0  0  0  0
   11.4347   39.9469    8.7278 H   0  0  0  0  0  0  0  0  0  0  0  0
   13.0299   40.5932    6.9036 H   0  0  0  0  0  0  0  0  0  0  0  0
   16.3284   40.3516    9.7093 H   0  0  0  0  0  0  0  0  0  0  0  0
  1  2  1  0
  2  3  1  0
  3  4  1  0
  4  5  2  0
  4  6  1  0
  6  7  1  0
  6  8  1  0
  8  9  1  0
  9 10  2  0
 10 11  1  0
 11 12  2  0
 11 13  1  0
 10 14  1  0
 14 15  1  0
 15 16  1  0
 16 17  2  0
 17 18  1  0
 18 19  2  0
 19 20  1  0
 20 21  2  0
 21 22  1  0
 22 23  2  0
 23 24  1  0
 24 25  2  0
 14 26  1  0
 26 27  2  0
 27 28  1  0
 28 29  2  0
 29 30  1  0
 29 31  1  0
 31 32  2  0
 32  9  1  0
 25 16  1  0
 32 26  1  0
 25 20  1  0
  1 33  1  0
  1 34  1  0
  1 35  1  0
  2 36  1  0
  2 37  1  0
  7 38  1  0
  7 39  1  0
  7 40  1  0
  8 41  1  0
  8 42  1  0
 15 43  1  0
 15 44  1  0
 17 45  1  0
 18 46  1  0
 19 47  1  0
 21 48  1  0
 22 49  1  0
 23 50  1  0
 24 51  1  0
 27 52  1  0
 28 53  1  0
 31 54  1  0
M  CHG  1  13  -1
M  END
>  <meeko>  (351) 
{"free_energy": -5.62, "intermolecular_energy": -8.0, "internal_energy": -1.91, "cluster_size": 49, "cluster_id": 55, "rank_in_cluster": 4}

$$$$

     RDKit          3D

 54 57  0  0  0  0  0  0  0  0999 V2000
   10.5700   38.3920    9.5140 C   0  0  0  0  0  0  0  0  0  0  0  0
   10.2370   39.3960   10.6210 C   0  0  0  0  0  0  0  0  0  0  0  0
   10.6700   38.8770   11.8680 O   0  0  0  0  0  0  0  0  0  0  0  0
   10.8140   39.6990   12.9290 C   0  0  0  0  0  0  0  0  0  0  0  0
    9.8790   40.3190   13.4380 O   0  0  0  0  0  0  0  0  0  0  0  0
   12.1500   39.7280   13.3510 N   0  0  0  0  0  0  0  0  0  0  0  0
   13.2430   39.2190   12.5150 C   0  0  0  0  0  0  0  0  0  0  0  0
   12.5200   40.2480   14.6740 C   0  0  0  0  0  0  0  0  0  0  0  0
   12.5090   39.1730   15.7350 C   0  0  0  0  0  0  0  0  0  0  0  0
   11.4400   38.6920   16.4700 C   0  0  0  0  0  0  0  0  0  0  0  0
    9.9930   39.0680   16.4060 C   0  0  0  0  0  0  0  0  0  0  0  0
    9.2280   38.3900   15.6860 O   0  0  0  0  0  0  0  0  0  0  0  0
    9.5620   40.0520   17.0460 O   0  0  0  0  0  1  0  0  0  0  0  0
   11.9150   37.7340   17.3900 N   0  0  0  0  0  0  0  0  0  0  0  0
   11.1520   36.9520   18.3670 C   0  0  0  0  0  0  0  0  0  0  0  0
    9.9830   36.1510   17.7790 C   0  0  0  0  0  0  0  0  0  0  0  0
    8.6470   36.4260   18.1660 C   0  0  0  0  0  0  0  0  0  0  0  0
    7.5730   35.6950   17.6300 C   0  0  0  0  0  0  0  0  0  0  0  0
    7.8150   34.6720   16.6990 C   0  0  0  0  0  0  0  0  0  0  0  0
    9.1330   34.3780   16.3010 C   0  0  0  0  0  0  0  0  0  0  0  0
    9.3570   33.3470   15.3650 C   0  0  0  0  0  0  0  0  0  0  0  0
   10.6650   33.0360   14.9530 C   0  0  0  0  0  0  0  0  0  0  0  0
   11.7530   33.7570   15.4760 C   0  0  0  0  0  0  0  0  0  0  0  0
   11.5360   34.7870   16.4120 C   0  0  0  0  0  0  0  0  0  0  0  0
   10.2250   35.1140   16.8370 C   0  0  0  0  0  0  0  0  0  0  0  0
   13.2900   37.6010   17.2430 C   0  0  0  0  0  0  0  0  0  0  0  0
   14.2340   36.8000   17.9190 C   0  0  0  0  0  0  0  0  0  0  0  0
   15.5900   36.8580   17.5550 C   0  0  0  0  0  0  0  0  0  0  0  0
   15.9970   37.7140   16.5170 C   0  0  0  0  0  0  0  0  0  0  0  0
   17.3010   37.7710   16.1580 F   0  0  0  0  0  0  0  0  0  0  0  0
   15.0480   38.5140   15.8500 C   0  0  0  0  0  0  0  0  0  0  0  0
   13.6760   38.4820   16.1980 C   0  0  0  0  0  0  0  0  0  0  0  0
   10.8858   37.4399    9.9654 H   0  0  0  0  0  0  0  0  0  0  0  0
    9.6792   38.2247    8.8907 H   0  0  0  0  0  0  0  0  0  0  0  0
   11.3842   38.7902    8.8907 H   0  0  0  0  0  0  0  0  0  0  0  0
   10.7503   40.3480   10.4207 H   0  0  0  0  0  0  0  0  0  0  0  0
    9.1508   39.5674   10.6495 H   0  0  0  0  0  0  0  0  0  0  0  0
   14.0518   38.8423   13.1583 H   0  0  0  0  0  0  0  0  0  0  0  0
   12.8691   38.4023   11.8799 H   0  0  0  0  0  0  0  0  0  0  0  0
   13.6275   40.0307   11.8799 H   0  0  0  0  0  0  0  0  0  0  0  0
   13.5311   40.6772   14.6155 H   0  0  0  0  0  0  0  0  0  0  0  0
   11.7772   41.0083   14.9570 H   0  0  0  0  0  0  0  0  0  0  0  0
   11.8410   36.2452   18.8526 H   0  0  0  0  0  0  0  0  0  0  0  0
   10.7097   37.6770   19.0660 H   0  0  0  0  0  0  0  0  0  0  0  0
    8.4481   37.2236   18.8969 H   0  0  0  0  0  0  0  0  0  0  0  0
    6.5427   35.9242   17.9398 H   0  0  0  0  0  0  0  0  0  0  0  0
    6.9740   34.0998   16.2803 H   0  0  0  0  0  0  0  0  0  0  0  0
    8.5052   32.7840   14.9557 H   0  0  0  0  0  0  0  0  0  0  0  0
   10.8366   32.2308   14.2235 H   0  0  0  0  0  0  0  0  0  0  0  0
   12.7766   33.5160   15.1533 H   0  0  0  0  0  0  0  0  0  0  0  0
   12.3940   35.3434   16.8173 H   0  0  0  0  0  0  0  0  0  0  0  0
   13.9092   36.1311   18.7297 H   0  0  0  0  0  0  0  0  0  0  0  0
   16.3299   36.2361   18.0802 H   0  0  0  0  0  0  0  0  0  0  0  0
   15.3810   39.1792   15.0397 H   0  0  0  0  0  0  0  0  0  0  0  0
  1  2  1  0
  2  3  1  0
  3  4  1  0
  4  5  2  0
  4  6  1  0
  6  7  1  0
  6  8  1  0
  8  9  1  0
  9 10  2  0
 10 11  1  0
 11 12  2  0
 11 13  1  0
 10 14  1  0
 14 15  1  0
 15 16  1  0
 16 17  2  0
 17 18  1  0
 18 19  2  0
 19 20  1  0
 20 21  2  0
 21 22  1  0
 22 23  2  0
 23 24  1  0
 24 25  2  0
 14 26  1  0
 26 27  2  0
 27 28  1  0
 28 29  2  0
 29 30  1  0
 29 31  1  0
 31 32  2  0
 32  9  1  0
 25 16  1  0
 32 26  1  0
 25 20  1  0
  1 33  1  0
  1 34  1  0
  1 35  1  0
  2 36  1  0
  2 37  1  0
  7 38  1  0
  7 39  1  0
  7 40  1  0
  8 41  1  0
  8 42  1  0
 15 43  1  0
 15 44  1  0
 17 45  1  0
 18 46  1  0
 19 47  1  0
 21 48  1  0
 22 49  1  0
 23 50  1  0
 24 51  1  0
 27 52  1  0
 28 53  1  0
 31 54  1  0
M  CHG  1  13  -1
M  END
>  <meeko>  (352) 
{"free_energy": -4.63, "intermolecular_energy": -7.02, "internal_energy": -2.07, "cluster_size": 38, "cluster_id": 116, "rank_in_cluster": 21}

$$$$

     RDKit          3D

 54 57  0  0  0  0  0  0  0  0999 V2000
   13.4720   41.6060    5.9960 C   0  0  0  0  0  0  0  0  0  0  0  0
   13.7530   40.9160    7.3330 C   0  0  0  0  0  0  0  0  0  0  0  0
   14.7490   41.6440    8.0340 O   0  0  0  0  0  0  0  0  0  0  0  0
   15.6760   40.9900    8.7650 C   0  0  0  0  0  0  0  0  0  0  0  0
   16.1840   39.9220    8.4180 O   0  0  0  0  0  0  0  0  0  0  0  0
   15.9650   41.6970    9.9390 N   0  0  0  0  0  0  0  0  0  0  0  0
   17.1310   42.5810   10.0510 C   0  0  0  0  0  0  0  0  0  0  0  0
   15.1230   41.5650   11.1350 C   0  0  0  0  0  0  0  0  0  0  0  0
   13.8780   40.7510   10.8710 C   0  0  0  0  0  0  0  0  0  0  0  0
   12.5600   41.1710   10.8320 C   0  0  0  0  0  0  0  0  0  0  0  0
   11.9910   42.5440   11.0030 C   0  0  0  0  0  0  0  0  0  0  0  0
   10.8640   42.6660   11.5300 O   0  0  0  0  0  0  0  0  0  0  0  0
   12.6220   43.5490   10.6080 O   0  0  0  0  0  1  0  0  0  0  0  0
   11.7320   40.0490   10.6150 N   0  0  0  0  0  0  0  0  0  0  0  0
   10.2720   40.0050   10.4900 C   0  0  0  0  0  0  0  0  0  0  0  0
    9.6590   38.6010   10.5740 C   0  0  0  0  0  0  0  0  0  0  0  0
    9.1800   37.9470    9.4110 C   0  0  0  0  0  0  0  0  0  0  0  0
    8.6180   36.6610    9.4840 C   0  0  0  0  0  0  0  0  0  0  0  0
    8.5230   36.0050   10.7220 C   0  0  0  0  0  0  0  0  0  0  0  0
    8.9910   36.6340   11.8910 C   0  0  0  0  0  0  0  0  0  0  0  0
    8.8870   35.9600   13.1260 C   0  0  0  0  0  0  0  0  0  0  0  0
    9.3470   36.5690   14.3070 C   0  0  0  0  0  0  0  0  0  0  0  0
    9.9130   37.8560   14.2550 C   0  0  0  0  0  0  0  0  0  0  0  0
   10.0190   38.5340   13.0260 C   0  0  0  0  0  0  0  0  0  0  0  0
    9.5610   37.9350   11.8260 C   0  0  0  0  0  0  0  0  0  0  0  0
   12.5210   38.9100   10.5150 C   0  0  0  0  0  0  0  0  0  0  0  0
   12.1910   37.5540   10.3160 C   0  0  0  0  0  0  0  0  0  0  0  0
   13.2100   36.5890   10.2450 C   0  0  0  0  0  0  0  0  0  0  0  0
   14.5530   36.9830   10.3710 C   0  0  0  0  0  0  0  0  0  0  0  0
   15.5400   36.0580   10.2990 F   0  0  0  0  0  0  0  0  0  0  0  0
   14.8740   38.3390   10.5730 C   0  0  0  0  0  0  0  0  0  0  0  0
   13.8690   39.3340   10.6560 C   0  0  0  0  0  0  0  0  0  0  0  0
   13.0630   42.6103    6.1805 H   0  0  0  0  0  0  0  0  0  0  0  0
   14.4073   41.6905    5.4233 H   0  0  0  0  0  0  0  0  0  0  0  0
   12.7437   41.0130    5.4233 H   0  0  0  0  0  0  0  0  0  0  0  0
   12.8307   40.8845    7.9316 H   0  0  0  0  0  0  0  0  0  0  0  0
   14.1044   39.8894    7.1522 H   0  0  0  0  0  0  0  0  0  0  0  0
   17.3593   42.7541   11.1130 H   0  0  0  0  0  0  0  0  0  0  0  0
   17.9965   42.1101    9.5620 H   0  0  0  0  0  0  0  0  0  0  0  0
   16.9113   43.5415    9.5620 H   0  0  0  0  0  0  0  0  0  0  0  0
   15.7069   41.0723   11.9264 H   0  0  0  0  0  0  0  0  0  0  0  0
   14.8079   42.5742   11.4385 H   0  0  0  0  0  0  0  0  0  0  0  0
    9.8413   40.6149   11.2978 H   0  0  0  0  0  0  0  0  0  0  0  0
   10.0366   40.3850    9.4849 H   0  0  0  0  0  0  0  0  0  0  0  0
    9.2492   38.4536    8.4371 H   0  0  0  0  0  0  0  0  0  0  0  0
    8.2524   36.1681    8.5711 H   0  0  0  0  0  0  0  0  0  0  0  0
    8.0824   34.9987   10.7782 H   0  0  0  0  0  0  0  0  0  0  0  0
    8.4442   34.9538   13.1652 H   0  0  0  0  0  0  0  0  0  0  0  0
    9.2646   36.0409   15.2684 H   0  0  0  0  0  0  0  0  0  0  0  0
   10.2738   38.3339   15.1777 H   0  0  0  0  0  0  0  0  0  0  0  0
   10.4624   39.5403   12.9966 H   0  0  0  0  0  0  0  0  0  0  0  0
   11.1380   37.2519   10.2165 H   0  0  0  0  0  0  0  0  0  0  0  0
   12.9574   35.5295   10.0914 H   0  0  0  0  0  0  0  0  0  0  0  0
   15.9298   38.6326   10.6686 H   0  0  0  0  0  0  0  0  0  0  0  0
  1  2  1  0
  2  3  1  0
  3  4  1  0
  4  5  2  0
  4  6  1  0
  6  7  1  0
  6  8  1  0
  8  9  1  0
  9 10  2  0
 10 11  1  0
 11 12  2  0
 11 13  1  0
 10 14  1  0
 14 15  1  0
 15 16  1  0
 16 17  2  0
 17 18  1  0
 18 19  2  0
 19 20  1  0
 20 21  2  0
 21 22  1  0
 22 23  2  0
 23 24  1  0
 24 25  2  0
 14 26  1  0
 26 27  2  0
 27 28  1  0
 28 29  2  0
 29 30  1  0
 29 31  1  0
 31 32  2  0
 32  9  1  0
 25 16  1  0
 32 26  1  0
 25 20  1  0
  1 33  1  0
  1 34  1  0
  1 35  1  0
  2 36  1  0
  2 37  1  0
  7 38  1  0
  7 39  1  0
  7 40  1  0
  8 41  1  0
  8 42  1  0
 15 43  1  0
 15 44  1  0
 17 45  1  0
 18 46  1  0
 19 47  1  0
 21 48  1  0
 22 49  1  0
 23 50  1  0
 24 51  1  0
 27 52  1  0
 28 53  1  0
 31 54  1  0
M  CHG  1  13  -1
M  END
>  <meeko>  (353) 
{"free_energy": -4.34, "intermolecular_energy": -6.73, "internal_energy": -1.74, "cluster_size": 3, "cluster_id": 236, "rank_in_cluster": 3}

$$$$

     RDKit          3D

 54 57  0  0  0  0  0  0  0  0999 V2000
    7.7430   37.5230   21.2160 C   0  0  0  0  0  0  0  0  0  0  0  0
    6.6310   36.4770   21.1110 C   0  0  0  0  0  0  0  0  0  0  0  0
    5.6790   36.9020   20.1490 O   0  0  0  0  0  0  0  0  0  0  0  0
    6.0860   37.5240   19.0230 C   0  0  0  0  0  0  0  0  0  0  0  0
    6.1870   38.7480   18.9230 O   0  0  0  0  0  0  0  0  0  0  0  0
    6.3740   36.5890   18.0200 N   0  0  0  0  0  0  0  0  0  0  0  0
    5.3900   36.2100   17.0000 C   0  0  0  0  0  0  0  0  0  0  0  0
    7.6770   35.9140   17.9600 C   0  0  0  0  0  0  0  0  0  0  0  0
    8.5920   36.5270   16.9260 C   0  0  0  0  0  0  0  0  0  0  0  0
    9.1460   35.9400   15.8020 C   0  0  0  0  0  0  0  0  0  0  0  0
    8.9770   34.5530   15.2680 C   0  0  0  0  0  0  0  0  0  0  0  0
    9.9970   33.8970   14.9660 O   0  0  0  0  0  0  0  0  0  0  0  0
    7.8360   34.0660   15.1100 O   0  0  0  0  0  1  0  0  0  0  0  0
    9.9870   36.8790   15.1670 N   0  0  0  0  0  0  0  0  0  0  0  0
   10.7760   36.7140   13.9430 C   0  0  0  0  0  0  0  0  0  0  0  0
    9.9730   36.8240   12.6390 C   0  0  0  0  0  0  0  0  0  0  0  0
    8.8650   35.9750   12.3950 C   0  0  0  0  0  0  0  0  0  0  0  0
    8.1270   36.0730   11.2030 C   0  0  0  0  0  0  0  0  0  0  0  0
    8.4850   37.0210   10.2310 C   0  0  0  0  0  0  0  0  0  0  0  0
    9.5830   37.8750   10.4500 C   0  0  0  0  0  0  0  0  0  0  0  0
    9.9280   38.8210    9.4630 C   0  0  0  0  0  0  0  0  0  0  0  0
   11.0210   39.6840    9.6600 C   0  0  0  0  0  0  0  0  0  0  0  0
   11.7710   39.6030   10.8460 C   0  0  0  0  0  0  0  0  0  0  0  0
   11.4320   38.6600   11.8350 C   0  0  0  0  0  0  0  0  0  0  0  0
   10.3340   37.7830   11.6530 C   0  0  0  0  0  0  0  0  0  0  0  0
    9.9710   38.0670   15.8860 C   0  0  0  0  0  0  0  0  0  0  0  0
   10.6390   39.2940   15.6890 C   0  0  0  0  0  0  0  0  0  0  0  0
   10.4290   40.3570   16.5830 C   0  0  0  0  0  0  0  0  0  0  0  0
    9.5530   40.1910   17.6690 C   0  0  0  0  0  0  0  0  0  0  0  0
    9.3430   41.2140   18.5320 F   0  0  0  0  0  0  0  0  0  0  0  0
    8.8920   38.9630   17.8610 C   0  0  0  0  0  0  0  0  0  0  0  0
    9.0880   37.8710   16.9810 C   0  0  0  0  0  0  0  0  0  0  0  0
    7.9576   37.7249   22.2758 H   0  0  0  0  0  0  0  0  0  0  0  0
    8.6507   37.1438   20.7238 H   0  0  0  0  0  0  0  0  0  0  0  0
    7.4200   38.4522   20.7238 H   0  0  0  0  0  0  0  0  0  0  0  0
    7.0610   35.5129   20.8018 H   0  0  0  0  0  0  0  0  0  0  0  0
    6.1408   36.3599   22.0888 H   0  0  0  0  0  0  0  0  0  0  0  0
    4.4712   35.8561   17.4905 H   0  0  0  0  0  0  0  0  0  0  0  0
    5.1577   37.0830   16.3724 H   0  0  0  0  0  0  0  0  0  0  0  0
    5.8033   35.4067   16.3724 H   0  0  0  0  0  0  0  0  0  0  0  0
    8.1588   35.9862   18.9462 H   0  0  0  0  0  0  0  0  0  0  0  0
    7.5009   34.8662   17.6753 H   0  0  0  0  0  0  0  0  0  0  0  0
   11.5555   37.4900   13.9312 H   0  0  0  0  0  0  0  0  0  0  0  0
   11.1813   35.6918   13.9715 H   0  0  0  0  0  0  0  0  0  0  0  0
    8.5782   35.2281   13.1499 H   0  0  0  0  0  0  0  0  0  0  0  0
    7.2686   35.4068   11.0314 H   0  0  0  0  0  0  0  0  0  0  0  0
    7.9074   37.0966    9.2979 H   0  0  0  0  0  0  0  0  0  0  0  0
    9.3401   38.8843    8.5354 H   0  0  0  0  0  0  0  0  0  0  0  0
   11.2882   40.4205    8.8879 H   0  0  0  0  0  0  0  0  0  0  0  0
   12.6252   40.2783   11.0019 H   0  0  0  0  0  0  0  0  0  0  0  0
   12.0260   38.6034   12.7591 H   0  0  0  0  0  0  0  0  0  0  0  0
   11.3232   39.4181   14.8367 H   0  0  0  0  0  0  0  0  0  0  0  0
   10.9481   41.3152   16.4335 H   0  0  0  0  0  0  0  0  0  0  0  0
    8.2074   38.8491   18.7144 H   0  0  0  0  0  0  0  0  0  0  0  0
  1  2  1  0
  2  3  1  0
  3  4  1  0
  4  5  2  0
  4  6  1  0
  6  7  1  0
  6  8  1  0
  8  9  1  0
  9 10  2  0
 10 11  1  0
 11 12  2  0
 11 13  1  0
 10 14  1  0
 14 15  1  0
 15 16  1  0
 16 17  2  0
 17 18  1  0
 18 19  2  0
 19 20  1  0
 20 21  2  0
 21 22  1  0
 22 23  2  0
 23 24  1  0
 24 25  2  0
 14 26  1  0
 26 27  2  0
 27 28  1  0
 28 29  2  0
 29 30  1  0
 29 31  1  0
 31 32  2  0
 32  9  1  0
 25 16  1  0
 32 26  1  0
 25 20  1  0
  1 33  1  0
  1 34  1  0
  1 35  1  0
  2 36  1  0
  2 37  1  0
  7 38  1  0
  7 39  1  0
  7 40  1  0
  8 41  1  0
  8 42  1  0
 15 43  1  0
 15 44  1  0
 17 45  1  0
 18 46  1  0
 19 47  1  0
 21 48  1  0
 22 49  1  0
 23 50  1  0
 24 51  1  0
 27 52  1  0
 28 53  1  0
 31 54  1  0
M  CHG  1  13  -1
M  END
>  <meeko>  (354) 
{"free_energy": -5.74, "intermolecular_energy": -8.13, "internal_energy": -1.96, "cluster_size": 163, "cluster_id": 4, "rank_in_cluster": 124}

$$$$

     RDKit          3D

 54 57  0  0  0  0  0  0  0  0999 V2000
   13.8650   38.2980   10.2610 C   0  0  0  0  0  0  0  0  0  0  0  0
   12.4180   37.9610    9.8900 C   0  0  0  0  0  0  0  0  0  0  0  0
   11.8550   39.0480    9.1730 O   0  0  0  0  0  0  0  0  0  0  0  0
   12.4400   40.2640    9.2180 C   0  0  0  0  0  0  0  0  0  0  0  0
   13.5650   40.4920    8.7710 O   0  0  0  0  0  0  0  0  0  0  0  0
   11.5890   41.1950    9.8270 N   0  0  0  0  0  0  0  0  0  0  0  0
   12.0430   42.5400   10.1980 C   0  0  0  0  0  0  0  0  0  0  0  0
   10.1980   40.8570   10.1530 C   0  0  0  0  0  0  0  0  0  0  0  0
   10.0910   39.5740   10.9430 C   0  0  0  0  0  0  0  0  0  0  0  0
   10.7600   39.2080   12.0970 C   0  0  0  0  0  0  0  0  0  0  0  0
   11.7490   39.9810   12.9120 C   0  0  0  0  0  0  0  0  0  0  0  0
   12.9580   39.6690   12.8440 O   0  0  0  0  0  0  0  0  0  0  0  0
   11.3710   40.9080   13.6610 O   0  0  0  0  0  1  0  0  0  0  0  0
   10.3880   37.8900   12.4400 N   0  0  0  0  0  0  0  0  0  0  0  0
   10.8310   37.0880   13.5840 C   0  0  0  0  0  0  0  0  0  0  0  0
   10.0900   37.3740   14.8970 C   0  0  0  0  0  0  0  0  0  0  0  0
   10.2060   38.6330   15.5370 C   0  0  0  0  0  0  0  0  0  0  0  0
    9.5290   38.9000   16.7400 C   0  0  0  0  0  0  0  0  0  0  0  0
    8.7260   37.9100   17.3270 C   0  0  0  0  0  0  0  0  0  0  0  0
    8.5960   36.6500   16.7120 C   0  0  0  0  0  0  0  0  0  0  0  0
    7.7850   35.6680   17.3170 C   0  0  0  0  0  0  0  0  0  0  0  0
    7.6410   34.4020   16.7210 C   0  0  0  0  0  0  0  0  0  0  0  0
    8.3080   34.1170   15.5170 C   0  0  0  0  0  0  0  0  0  0  0  0
    9.1210   35.0930   14.9090 C   0  0  0  0  0  0  0  0  0  0  0  0
    9.2760   36.3730   15.4950 C   0  0  0  0  0  0  0  0  0  0  0  0
    9.4800   37.4130   11.5040 C   0  0  0  0  0  0  0  0  0  0  0  0
    8.8220   36.1720   11.3810 C   0  0  0  0  0  0  0  0  0  0  0  0
    7.9280   35.9550   10.3200 C   0  0  0  0  0  0  0  0  0  0  0  0
    7.6930   36.9790    9.3860 C   0  0  0  0  0  0  0  0  0  0  0  0
    6.8290   36.7770    8.3630 F   0  0  0  0  0  0  0  0  0  0  0  0
    8.3570   38.2150    9.5140 C   0  0  0  0  0  0  0  0  0  0  0  0
    9.2680   38.4610   10.5690 C   0  0  0  0  0  0  0  0  0  0  0  0
   13.9668   38.3217   11.3560 H   0  0  0  0  0  0  0  0  0  0  0  0
   14.5375   37.5325    9.8467 H   0  0  0  0  0  0  0  0  0  0  0  0
   14.1301   39.2819    9.8467 H   0  0  0  0  0  0  0  0  0  0  0  0
   12.3999   37.0576    9.2626 H   0  0  0  0  0  0  0  0  0  0  0  0
   11.8345   37.7799   10.8048 H   0  0  0  0  0  0  0  0  0  0  0  0
   12.0726   42.6277   11.2941 H   0  0  0  0  0  0  0  0  0  0  0  0
   13.0494   42.7131    9.7890 H   0  0  0  0  0  0  0  0  0  0  0  0
   11.3474   43.2876    9.7890 H   0  0  0  0  0  0  0  0  0  0  0  0
    9.7647   41.6754   10.7467 H   0  0  0  0  0  0  0  0  0  0  0  0
    9.6547   40.7165    9.2069 H   0  0  0  0  0  0  0  0  0  0  0  0
   10.6866   36.0266   13.3340 H   0  0  0  0  0  0  0  0  0  0  0  0
   11.8840   37.3539   13.7589 H   0  0  0  0  0  0  0  0  0  0  0  0
   10.8357   39.4138   15.0855 H   0  0  0  0  0  0  0  0  0  0  0  0
    9.6287   39.8843   17.2208 H   0  0  0  0  0  0  0  0  0  0  0  0
    8.1974   38.1186   18.2688 H   0  0  0  0  0  0  0  0  0  0  0  0
    7.2629   35.8928   18.2587 H   0  0  0  0  0  0  0  0  0  0  0  0
    7.0084   33.6375   17.1957 H   0  0  0  0  0  0  0  0  0  0  0  0
    8.1946   33.1284   15.0482 H   0  0  0  0  0  0  0  0  0  0  0  0
    9.6414   34.8586   13.9686 H   0  0  0  0  0  0  0  0  0  0  0  0
    9.0088   35.3746   12.1154 H   0  0  0  0  0  0  0  0  0  0  0  0
    7.4137   34.9878   10.2202 H   0  0  0  0  0  0  0  0  0  0  0  0
    8.1628   39.0077    8.7765 H   0  0  0  0  0  0  0  0  0  0  0  0
  1  2  1  0
  2  3  1  0
  3  4  1  0
  4  5  2  0
  4  6  1  0
  6  7  1  0
  6  8  1  0
  8  9  1  0
  9 10  2  0
 10 11  1  0
 11 12  2  0
 11 13  1  0
 10 14  1  0
 14 15  1  0
 15 16  1  0
 16 17  2  0
 17 18  1  0
 18 19  2  0
 19 20  1  0
 20 21  2  0
 21 22  1  0
 22 23  2  0
 23 24  1  0
 24 25  2  0
 14 26  1  0
 26 27  2  0
 27 28  1  0
 28 29  2  0
 29 30  1  0
 29 31  1  0
 31 32  2  0
 32  9  1  0
 25 16  1  0
 32 26  1  0
 25 20  1  0
  1 33  1  0
  1 34  1  0
  1 35  1  0
  2 36  1  0
  2 37  1  0
  7 38  1  0
  7 39  1  0
  7 40  1  0
  8 41  1  0
  8 42  1  0
 15 43  1  0
 15 44  1  0
 17 45  1  0
 18 46  1  0
 19 47  1  0
 21 48  1  0
 22 49  1  0
 23 50  1  0
 24 51  1  0
 27 52  1  0
 28 53  1  0
 31 54  1  0
M  CHG  1  13  -1
M  END
>  <meeko>  (355) 
{"free_energy": -5.86, "intermolecular_energy": -8.24, "internal_energy": -1.66, "cluster_size": 253, "cluster_id": 8, "rank_in_cluster": 166}

$$$$

     RDKit          3D

 54 57  0  0  0  0  0  0  0  0999 V2000
    9.8660   37.9530   18.0140 C   0  0  0  0  0  0  0  0  0  0  0  0
    9.4060   38.3730   16.6160 C   0  0  0  0  0  0  0  0  0  0  0  0
    9.9570   39.6420   16.3040 O   0  0  0  0  0  0  0  0  0  0  0  0
   10.7620   39.7850   15.2300 C   0  0  0  0  0  0  0  0  0  0  0  0
   10.3750   40.2310   14.1480 O   0  0  0  0  0  0  0  0  0  0  0  0
   12.0640   39.3660   15.5320 N   0  0  0  0  0  0  0  0  0  0  0  0
   12.5970   39.4010   16.8980 C   0  0  0  0  0  0  0  0  0  0  0  0
   12.9760   38.8950   14.4820 C   0  0  0  0  0  0  0  0  0  0  0  0
   12.2430   38.5130   13.2170 C   0  0  0  0  0  0  0  0  0  0  0  0
   11.1690   37.6540   13.0630 C   0  0  0  0  0  0  0  0  0  0  0  0
   10.4050   36.8880   14.0970 C   0  0  0  0  0  0  0  0  0  0  0  0
    9.1600   36.8320   14.0040 O   0  0  0  0  0  0  0  0  0  0  0  0
   10.9990   36.3310   15.0450 O   0  0  0  0  0  1  0  0  0  0  0  0
   10.8590   37.5540   11.6900 N   0  0  0  0  0  0  0  0  0  0  0  0
    9.7970   36.7730   11.0500 C   0  0  0  0  0  0  0  0  0  0  0  0
    9.0160   37.5170    9.9600 C   0  0  0  0  0  0  0  0  0  0  0  0
    8.8170   38.9190   10.0380 C   0  0  0  0  0  0  0  0  0  0  0  0
    8.1020   39.6050    9.0410 C   0  0  0  0  0  0  0  0  0  0  0  0
    7.5710   38.9020    7.9480 C   0  0  0  0  0  0  0  0  0  0  0  0
    7.7540   37.5100    7.8480 C   0  0  0  0  0  0  0  0  0  0  0  0
    7.2130   36.8200    6.7440 C   0  0  0  0  0  0  0  0  0  0  0  0
    7.3830   35.4290    6.6240 C   0  0  0  0  0  0  0  0  0  0  0  0
    8.0960   34.7250    7.6100 C   0  0  0  0  0  0  0  0  0  0  0  0
    8.6380   35.4070    8.7160 C   0  0  0  0  0  0  0  0  0  0  0  0
    8.4760   36.8080    8.8520 C   0  0  0  0  0  0  0  0  0  0  0  0
   11.7370   38.3500   10.9640 C   0  0  0  0  0  0  0  0  0  0  0  0
   11.8630   38.5880    9.5800 C   0  0  0  0  0  0  0  0  0  0  0  0
   12.8540   39.4650    9.1080 C   0  0  0  0  0  0  0  0  0  0  0  0
   13.7140   40.1010   10.0200 C   0  0  0  0  0  0  0  0  0  0  0  0
   14.6690   40.9500    9.5720 F   0  0  0  0  0  0  0  0  0  0  0  0
   13.5840   39.8550   11.4010 C   0  0  0  0  0  0  0  0  0  0  0  0
   12.5990   38.9720   11.9060 C   0  0  0  0  0  0  0  0  0  0  0  0
    9.2766   38.4911   18.7710 H   0  0  0  0  0  0  0  0  0  0  0  0
    9.7204   36.8697   18.1379 H   0  0  0  0  0  0  0  0  0  0  0  0
   10.9316   38.1963   18.1379 H   0  0  0  0  0  0  0  0  0  0  0  0
    9.7482   37.6322   15.8784 H   0  0  0  0  0  0  0  0  0  0  0  0
    8.3078   38.4313   16.5909 H   0  0  0  0  0  0  0  0  0  0  0  0
   11.7664   39.3465   17.6172 H   0  0  0  0  0  0  0  0  0  0  0  0
   13.2710   38.5452   17.0506 H   0  0  0  0  0  0  0  0  0  0  0  0
   13.1533   40.3376   17.0506 H   0  0  0  0  0  0  0  0  0  0  0  0
   13.6912   39.6974   14.2482 H   0  0  0  0  0  0  0  0  0  0  0  0
   13.4891   37.9978   14.8585 H   0  0  0  0  0  0  0  0  0  0  0  0
   10.2548   35.8823   10.5948 H   0  0  0  0  0  0  0  0  0  0  0  0
    9.0709   36.5334   11.8408 H   0  0  0  0  0  0  0  0  0  0  0  0
    9.2283   39.4779   10.8915 H   0  0  0  0  0  0  0  0  0  0  0  0
    7.9585   40.6929    9.1172 H   0  0  0  0  0  0  0  0  0  0  0  0
    7.0111   39.4398    7.1687 H   0  0  0  0  0  0  0  0  0  0  0  0
    6.6554   37.3720    5.9730 H   0  0  0  0  0  0  0  0  0  0  0  0
    6.9594   34.8937    5.7614 H   0  0  0  0  0  0  0  0  0  0  0  0
    8.2309   33.6373    7.5171 H   0  0  0  0  0  0  0  0  0  0  0  0
    9.1930   34.8463    9.4825 H   0  0  0  0  0  0  0  0  0  0  0  0
   11.1867   38.0880    8.8711 H   0  0  0  0  0  0  0  0  0  0  0  0
   12.9565   39.6532    8.0291 H   0  0  0  0  0  0  0  0  0  0  0  0
   14.2633   40.3605   12.1032 H   0  0  0  0  0  0  0  0  0  0  0  0
  1  2  1  0
  2  3  1  0
  3  4  1  0
  4  5  2  0
  4  6  1  0
  6  7  1  0
  6  8  1  0
  8  9  1  0
  9 10  2  0
 10 11  1  0
 11 12  2  0
 11 13  1  0
 10 14  1  0
 14 15  1  0
 15 16  1  0
 16 17  2  0
 17 18  1  0
 18 19  2  0
 19 20  1  0
 20 21  2  0
 21 22  1  0
 22 23  2  0
 23 24  1  0
 24 25  2  0
 14 26  1  0
 26 27  2  0
 27 28  1  0
 28 29  2  0
 29 30  1  0
 29 31  1  0
 31 32  2  0
 32  9  1  0
 25 16  1  0
 32 26  1  0
 25 20  1  0
  1 33  1  0
  1 34  1  0
  1 35  1  0
  2 36  1  0
  2 37  1  0
  7 38  1  0
  7 39  1  0
  7 40  1  0
  8 41  1  0
  8 42  1  0
 15 43  1  0
 15 44  1  0
 17 45  1  0
 18 46  1  0
 19 47  1  0
 21 48  1  0
 22 49  1  0
 23 50  1  0
 24 51  1  0
 27 52  1  0
 28 53  1  0
 31 54  1  0
M  CHG  1  13  -1
M  END
>  <meeko>  (356) 
{"free_energy": -6.15, "intermolecular_energy": -8.53, "internal_energy": -1.56, "cluster_size": 263, "cluster_id": 1, "rank_in_cluster": 205}

$$$$

     RDKit          3D

 54 57  0  0  0  0  0  0  0  0999 V2000
    3.0750   36.9680   17.3060 C   0  0  0  0  0  0  0  0  0  0  0  0
    3.7190   37.4190   18.6190 C   0  0  0  0  0  0  0  0  0  0  0  0
    4.6950   38.4110   18.3430 O   0  0  0  0  0  0  0  0  0  0  0  0
    5.7770   38.5350   19.1410 C   0  0  0  0  0  0  0  0  0  0  0  0
    5.8440   39.3400   20.0720 O   0  0  0  0  0  0  0  0  0  0  0  0
    6.7750   37.6290   18.7600 N   0  0  0  0  0  0  0  0  0  0  0  0
    7.8090   37.1690   19.6940 C   0  0  0  0  0  0  0  0  0  0  0  0
    6.8530   37.1140   17.3870 C   0  0  0  0  0  0  0  0  0  0  0  0
    8.2580   36.7140   17.0040 C   0  0  0  0  0  0  0  0  0  0  0  0
    9.4280   37.4440   17.1170 C   0  0  0  0  0  0  0  0  0  0  0  0
    9.6470   38.8140   17.6760 C   0  0  0  0  0  0  0  0  0  0  0  0
   10.6000   38.9950   18.4640 O   0  0  0  0  0  0  0  0  0  0  0  0
    8.8800   39.7550   17.3760 O   0  0  0  0  0  1  0  0  0  0  0  0
   10.4890   36.6890   16.5720 N   0  0  0  0  0  0  0  0  0  0  0  0
   11.9070   37.0470   16.4800 C   0  0  0  0  0  0  0  0  0  0  0  0
   12.1990   38.3250   15.6820 C   0  0  0  0  0  0  0  0  0  0  0  0
   13.0470   39.3310   16.2090 C   0  0  0  0  0  0  0  0  0  0  0  0
   13.3180   40.5040   15.4820 C   0  0  0  0  0  0  0  0  0  0  0  0
   12.7430   40.6930   14.2150 C   0  0  0  0  0  0  0  0  0  0  0  0
   11.8960   39.7090   13.6710 C   0  0  0  0  0  0  0  0  0  0  0  0
   11.3270   39.9150   12.3970 C   0  0  0  0  0  0  0  0  0  0  0  0
   10.4780   38.9460   11.8340 C   0  0  0  0  0  0  0  0  0  0  0  0
   10.1960   37.7660   12.5450 C   0  0  0  0  0  0  0  0  0  0  0  0
   10.7600   37.5540   13.8180 C   0  0  0  0  0  0  0  0  0  0  0  0
   11.6180   38.5200   14.4000 C   0  0  0  0  0  0  0  0  0  0  0  0
    9.9970   35.4750   16.1100 C   0  0  0  0  0  0  0  0  0  0  0  0
   10.6290   34.3850   15.4780 C   0  0  0  0  0  0  0  0  0  0  0  0
    9.8790   33.2530   15.1170 C   0  0  0  0  0  0  0  0  0  0  0  0
    8.5010   33.2150   15.3900 C   0  0  0  0  0  0  0  0  0  0  0  0
    7.7720   32.1260   15.0480 F   0  0  0  0  0  0  0  0  0  0  0  0
    7.8760   34.3090   16.0190 C   0  0  0  0  0  0  0  0  0  0  0  0
    8.6040   35.4660   16.3890 C   0  0  0  0  0  0  0  0  0  0  0  0
    2.1919   36.3495   17.5242 H   0  0  0  0  0  0  0  0  0  0  0  0
    2.7699   37.8508   16.7250 H   0  0  0  0  0  0  0  0  0  0  0  0
    3.8003   36.3795   16.7250 H   0  0  0  0  0  0  0  0  0  0  0  0
    2.9476   37.8364   19.2829 H   0  0  0  0  0  0  0  0  0  0  0  0
    4.1954   36.5586   19.1117 H   0  0  0  0  0  0  0  0  0  0  0  0
    7.4642   37.3224   20.7273 H   0  0  0  0  0  0  0  0  0  0  0  0
    8.0039   36.0993   19.5275 H   0  0  0  0  0  0  0  0  0  0  0  0
    8.7340   37.7405   19.5275 H   0  0  0  0  0  0  0  0  0  0  0  0
    6.1989   36.2338   17.3016 H   0  0  0  0  0  0  0  0  0  0  0  0
    6.5349   37.9182   16.7073 H   0  0  0  0  0  0  0  0  0  0  0  0
   12.2915   37.1862   17.5012 H   0  0  0  0  0  0  0  0  0  0  0  0
   12.3987   36.2254   15.9385 H   0  0  0  0  0  0  0  0  0  0  0  0
   13.5001   39.1922   17.2017 H   0  0  0  0  0  0  0  0  0  0  0  0
   13.9803   41.2732   15.9058 H   0  0  0  0  0  0  0  0  0  0  0  0
   12.9546   41.6109   13.6470 H   0  0  0  0  0  0  0  0  0  0  0  0
   11.5485   40.8381   11.8413 H   0  0  0  0  0  0  0  0  0  0  0  0
   10.0357   39.1104   10.8404 H   0  0  0  0  0  0  0  0  0  0  0  0
    9.5329   37.0062   12.1056 H   0  0  0  0  0  0  0  0  0  0  0  0
   10.5319   36.6282   14.3666 H   0  0  0  0  0  0  0  0  0  0  0  0
   11.7081   34.4206   15.2677 H   0  0  0  0  0  0  0  0  0  0  0  0
   10.3682   32.4005   14.6230 H   0  0  0  0  0  0  0  0  0  0  0  0
    6.7970   34.2638   16.2278 H   0  0  0  0  0  0  0  0  0  0  0  0
  1  2  1  0
  2  3  1  0
  3  4  1  0
  4  5  2  0
  4  6  1  0
  6  7  1  0
  6  8  1  0
  8  9  1  0
  9 10  2  0
 10 11  1  0
 11 12  2  0
 11 13  1  0
 10 14  1  0
 14 15  1  0
 15 16  1  0
 16 17  2  0
 17 18  1  0
 18 19  2  0
 19 20  1  0
 20 21  2  0
 21 22  1  0
 22 23  2  0
 23 24  1  0
 24 25  2  0
 14 26  1  0
 26 27  2  0
 27 28  1  0
 28 29  2  0
 29 30  1  0
 29 31  1  0
 31 32  2  0
 32  9  1  0
 25 16  1  0
 32 26  1  0
 25 20  1  0
  1 33  1  0
  1 34  1  0
  1 35  1  0
  2 36  1  0
  2 37  1  0
  7 38  1  0
  7 39  1  0
  7 40  1  0
  8 41  1  0
  8 42  1  0
 15 43  1  0
 15 44  1  0
 17 45  1  0
 18 46  1  0
 19 47  1  0
 21 48  1  0
 22 49  1  0
 23 50  1  0
 24 51  1  0
 27 52  1  0
 28 53  1  0
 31 54  1  0
M  CHG  1  13  -1
M  END
>  <meeko>  (357) 
{"free_energy": -5.0, "intermolecular_energy": -7.38, "internal_energy": -1.86, "cluster_size": 48, "cluster_id": 30, "rank_in_cluster": 36}

$$$$

     RDKit          3D

 54 57  0  0  0  0  0  0  0  0999 V2000
    7.0320   38.2790    7.1900 C   0  0  0  0  0  0  0  0  0  0  0  0
    7.5060   37.4950    8.4160 C   0  0  0  0  0  0  0  0  0  0  0  0
    8.9240   37.4520    8.4230 O   0  0  0  0  0  0  0  0  0  0  0  0
    9.5830   37.0610    9.5340 C   0  0  0  0  0  0  0  0  0  0  0  0
    9.9980   35.9140    9.7090 O   0  0  0  0  0  0  0  0  0  0  0  0
    9.7230   38.1330   10.4250 N   0  0  0  0  0  0  0  0  0  0  0  0
   10.0300   39.4930    9.9680 C   0  0  0  0  0  0  0  0  0  0  0  0
    9.5970   37.9400   11.8760 C   0  0  0  0  0  0  0  0  0  0  0  0
   10.8420   38.3620   12.6200 C   0  0  0  0  0  0  0  0  0  0  0  0
   10.9490   38.9260   13.8790 C   0  0  0  0  0  0  0  0  0  0  0  0
    9.8800   39.2460   14.8760 C   0  0  0  0  0  0  0  0  0  0  0  0
    9.2590   38.3030   15.4140 O   0  0  0  0  0  0  0  0  0  0  0  0
    9.5990   40.4330   15.1500 O   0  0  0  0  0  1  0  0  0  0  0  0
   12.3070   39.2130   14.1340 N   0  0  0  0  0  0  0  0  0  0  0  0
   12.9030   39.8040   15.3360 C   0  0  0  0  0  0  0  0  0  0  0  0
   12.6420   39.0270   16.6340 C   0  0  0  0  0  0  0  0  0  0  0  0
   11.5360   39.3470   17.4610 C   0  0  0  0  0  0  0  0  0  0  0  0
   11.2930   38.6380   18.6500 C   0  0  0  0  0  0  0  0  0  0  0  0
   12.1530   37.5970   19.0350 C   0  0  0  0  0  0  0  0  0  0  0  0
   13.2590   37.2610   18.2310 C   0  0  0  0  0  0  0  0  0  0  0  0
   14.1120   36.2130   18.6340 C   0  0  0  0  0  0  0  0  0  0  0  0
   15.2220   35.8600   17.8460 C   0  0  0  0  0  0  0  0  0  0  0  0
   15.4820   36.5570   16.6530 C   0  0  0  0  0  0  0  0  0  0  0  0
   14.6340   37.6050   16.2450 C   0  0  0  0  0  0  0  0  0  0  0  0
   13.5110   37.9730   17.0260 C   0  0  0  0  0  0  0  0  0  0  0  0
   13.0690   38.8340   13.0370 C   0  0  0  0  0  0  0  0  0  0  0  0
   14.4530   38.9170   12.7800 C   0  0  0  0  0  0  0  0  0  0  0  0
   14.9700   38.4400   11.5630 C   0  0  0  0  0  0  0  0  0  0  0  0
   14.1020   37.8800   10.6100 C   0  0  0  0  0  0  0  0  0  0  0  0
   14.5940   37.4150    9.4370 F   0  0  0  0  0  0  0  0  0  0  0  0
   12.7200   37.8040   10.8720 C   0  0  0  0  0  0  0  0  0  0  0  0
   12.1690   38.2820   12.0860 C   0  0  0  0  0  0  0  0  0  0  0  0
    6.4886   39.1778    7.5171 H   0  0  0  0  0  0  0  0  0  0  0  0
    7.9019   38.5760    6.5859 H   0  0  0  0  0  0  0  0  0  0  0  0
    6.3648   37.6467    6.5859 H   0  0  0  0  0  0  0  0  0  0  0  0
    7.1485   37.9908    9.3305 H   0  0  0  0  0  0  0  0  0  0  0  0
    7.1056   36.4712    8.3773 H   0  0  0  0  0  0  0  0  0  0  0  0
   10.1778   40.1480   10.8393 H   0  0  0  0  0  0  0  0  0  0  0  0
   10.9473   39.4776    9.3610 H   0  0  0  0  0  0  0  0  0  0  0  0
    9.1951   39.8731    9.3610 H   0  0  0  0  0  0  0  0  0  0  0  0
    8.7478   38.5370   12.2400 H   0  0  0  0  0  0  0  0  0  0  0  0
    9.4417   36.8668   12.0608 H   0  0  0  0  0  0  0  0  0  0  0  0
   13.9910   39.8620   15.1851 H   0  0  0  0  0  0  0  0  0  0  0  0
   12.4289   40.7883   15.4642 H   0  0  0  0  0  0  0  0  0  0  0  0
   10.8580   40.1621   17.1679 H   0  0  0  0  0  0  0  0  0  0  0  0
   10.4290   38.8987   19.2790 H   0  0  0  0  0  0  0  0  0  0  0  0
   11.9624   37.0431   19.9661 H   0  0  0  0  0  0  0  0  0  0  0  0
   13.9084   35.6695   19.5684 H   0  0  0  0  0  0  0  0  0  0  0  0
   15.8848   35.0410   18.1621 H   0  0  0  0  0  0  0  0  0  0  0  0
   16.3506   36.2830   16.0362 H   0  0  0  0  0  0  0  0  0  0  0  0
   14.8461   38.1436   15.3096 H   0  0  0  0  0  0  0  0  0  0  0  0
   15.1273   39.3545   13.5310 H   0  0  0  0  0  0  0  0  0  0  0  0
   16.0487   38.5047   11.3575 H   0  0  0  0  0  0  0  0  0  0  0  0
   12.0533   37.3632   10.1162 H   0  0  0  0  0  0  0  0  0  0  0  0
  1  2  1  0
  2  3  1  0
  3  4  1  0
  4  5  2  0
  4  6  1  0
  6  7  1  0
  6  8  1  0
  8  9  1  0
  9 10  2  0
 10 11  1  0
 11 12  2  0
 11 13  1  0
 10 14  1  0
 14 15  1  0
 15 16  1  0
 16 17  2  0
 17 18  1  0
 18 19  2  0
 19 20  1  0
 20 21  2  0
 21 22  1  0
 22 23  2  0
 23 24  1  0
 24 25  2  0
 14 26  1  0
 26 27  2  0
 27 28  1  0
 28 29  2  0
 29 30  1  0
 29 31  1  0
 31 32  2  0
 32  9  1  0
 25 16  1  0
 32 26  1  0
 25 20  1  0
  1 33  1  0
  1 34  1  0
  1 35  1  0
  2 36  1  0
  2 37  1  0
  7 38  1  0
  7 39  1  0
  7 40  1  0
  8 41  1  0
  8 42  1  0
 15 43  1  0
 15 44  1  0
 17 45  1  0
 18 46  1  0
 19 47  1  0
 21 48  1  0
 22 49  1  0
 23 50  1  0
 24 51  1  0
 27 52  1  0
 28 53  1  0
 31 54  1  0
M  CHG  1  13  -1
M  END
>  <meeko>  (358) 
{"free_energy": -3.98, "intermolecular_energy": -6.36, "internal_energy": -1.76, "cluster_size": 25, "cluster_id": 97, "rank_in_cluster": 24}

$$$$

     RDKit          3D

 54 57  0  0  0  0  0  0  0  0999 V2000
   18.9450   41.3630   14.0890 C   0  0  0  0  0  0  0  0  0  0  0  0
   17.8490   40.3450   13.7660 C   0  0  0  0  0  0  0  0  0  0  0  0
   16.9990   40.8750   12.7620 O   0  0  0  0  0  0  0  0  0  0  0  0
   16.1430   41.8770   13.0600 C   0  0  0  0  0  0  0  0  0  0  0  0
   16.0990   42.9380   12.4370 O   0  0  0  0  0  0  0  0  0  0  0  0
   15.3370   41.5250   14.1500 N   0  0  0  0  0  0  0  0  0  0  0  0
   15.2770   42.3370   15.3710 C   0  0  0  0  0  0  0  0  0  0  0  0
   14.5270   40.3000   14.1350 C   0  0  0  0  0  0  0  0  0  0  0  0
   14.1840   39.8580   12.7320 C   0  0  0  0  0  0  0  0  0  0  0  0
   13.2270   40.3690   11.8720 C   0  0  0  0  0  0  0  0  0  0  0  0
   12.2870   41.5170   12.0640 C   0  0  0  0  0  0  0  0  0  0  0  0
   12.6780   42.6680   11.7740 O   0  0  0  0  0  0  0  0  0  0  0  0
   11.1400   41.3300   12.5240 O   0  0  0  0  0  1  0  0  0  0  0  0
   13.2210   39.5980   10.6900 N   0  0  0  0  0  0  0  0  0  0  0  0
   12.3880   39.7680    9.4960 C   0  0  0  0  0  0  0  0  0  0  0  0
   10.8770   39.6530    9.7430 C   0  0  0  0  0  0  0  0  0  0  0  0
   10.0380   40.7920    9.6480 C   0  0  0  0  0  0  0  0  0  0  0  0
    8.6540   40.6910    9.8730 C   0  0  0  0  0  0  0  0  0  0  0  0
    8.0840   39.4500   10.1990 C   0  0  0  0  0  0  0  0  0  0  0  0
    8.8970   38.3060   10.3010 C   0  0  0  0  0  0  0  0  0  0  0  0
    8.3070   37.0680   10.6300 C   0  0  0  0  0  0  0  0  0  0  0  0
    9.1000   35.9110   10.7380 C   0  0  0  0  0  0  0  0  0  0  0  0
   10.4860   35.9900   10.5160 C   0  0  0  0  0  0  0  0  0  0  0  0
   11.0810   37.2240   10.1870 C   0  0  0  0  0  0  0  0  0  0  0  0
   10.2970   38.3990   10.0740 C   0  0  0  0  0  0  0  0  0  0  0  0
   14.1750   38.5930   10.7930 C   0  0  0  0  0  0  0  0  0  0  0  0
   14.5540   37.5620    9.9090 C   0  0  0  0  0  0  0  0  0  0  0  0
   15.5770   36.6700   10.2700 C   0  0  0  0  0  0  0  0  0  0  0  0
   16.2180   36.8120   11.5130 C   0  0  0  0  0  0  0  0  0  0  0  0
   17.2070   35.9570   11.8660 F   0  0  0  0  0  0  0  0  0  0  0  0
   15.8310   37.8420   12.3930 C   0  0  0  0  0  0  0  0  0  0  0  0
   14.7990   38.7520   12.0590 C   0  0  0  0  0  0  0  0  0  0  0  0
   19.0472   41.4579   15.1801 H   0  0  0  0  0  0  0  0  0  0  0  0
   19.8990   41.0233   13.6595 H   0  0  0  0  0  0  0  0  0  0  0  0
   18.6766   42.3395   13.6595 H   0  0  0  0  0  0  0  0  0  0  0  0
   18.3080   39.4130   13.4046 H   0  0  0  0  0  0  0  0  0  0  0  0
   17.2624   40.1346   14.6724 H   0  0  0  0  0  0  0  0  0  0  0  0
   15.3256   41.6794   16.2514 H   0  0  0  0  0  0  0  0  0  0  0  0
   16.1259   43.0363   15.3884 H   0  0  0  0  0  0  0  0  0  0  0  0
   14.3345   42.9039   15.3884 H   0  0  0  0  0  0  0  0  0  0  0  0
   15.0911   39.4966   14.6312 H   0  0  0  0  0  0  0  0  0  0  0  0
   13.5847   40.5126   14.6612 H   0  0  0  0  0  0  0  0  0  0  0  0
   12.5912   40.7642    9.0761 H   0  0  0  0  0  0  0  0  0  0  0  0
   12.6535   38.9469    8.8139 H   0  0  0  0  0  0  0  0  0  0  0  0
   10.4763   41.7686    9.3946 H   0  0  0  0  0  0  0  0  0  0  0  0
    8.0174   41.5846    9.7936 H   0  0  0  0  0  0  0  0  0  0  0  0
    7.0010   39.3719   10.3748 H   0  0  0  0  0  0  0  0  0  0  0  0
    7.2224   37.0068   10.8029 H   0  0  0  0  0  0  0  0  0  0  0  0
    8.6368   34.9471   10.9955 H   0  0  0  0  0  0  0  0  0  0  0  0
   11.1074   35.0862   10.5994 H   0  0  0  0  0  0  0  0  0  0  0  0
   12.1664   37.2759   10.0159 H   0  0  0  0  0  0  0  0  0  0  0  0
   14.0489   37.4564    8.9375 H   0  0  0  0  0  0  0  0  0  0  0  0
   15.8752   35.8641    9.5833 H   0  0  0  0  0  0  0  0  0  0  0  0
   16.3424   37.9415   13.3618 H   0  0  0  0  0  0  0  0  0  0  0  0
  1  2  1  0
  2  3  1  0
  3  4  1  0
  4  5  2  0
  4  6  1  0
  6  7  1  0
  6  8  1  0
  8  9  1  0
  9 10  2  0
 10 11  1  0
 11 12  2  0
 11 13  1  0
 10 14  1  0
 14 15  1  0
 15 16  1  0
 16 17  2  0
 17 18  1  0
 18 19  2  0
 19 20  1  0
 20 21  2  0
 21 22  1  0
 22 23  2  0
 23 24  1  0
 24 25  2  0
 14 26  1  0
 26 27  2  0
 27 28  1  0
 28 29  2  0
 29 30  1  0
 29 31  1  0
 31 32  2  0
 32  9  1  0
 25 16  1  0
 32 26  1  0
 25 20  1  0
  1 33  1  0
  1 34  1  0
  1 35  1  0
  2 36  1  0
  2 37  1  0
  7 38  1  0
  7 39  1  0
  7 40  1  0
  8 41  1  0
  8 42  1  0
 15 43  1  0
 15 44  1  0
 17 45  1  0
 18 46  1  0
 19 47  1  0
 21 48  1  0
 22 49  1  0
 23 50  1  0
 24 51  1  0
 27 52  1  0
 28 53  1  0
 31 54  1  0
M  CHG  1  13  -1
M  END
>  <meeko>  (359) 
{"free_energy": -4.11, "intermolecular_energy": -6.5, "internal_energy": -2.26, "cluster_size": 17, "cluster_id": 157, "rank_in_cluster": 14}

$$$$

     RDKit          3D

 54 57  0  0  0  0  0  0  0  0999 V2000
    5.0090   37.5820   17.9710 C   0  0  0  0  0  0  0  0  0  0  0  0
    5.0260   36.3680   17.0390 C   0  0  0  0  0  0  0  0  0  0  0  0
    6.3680   36.0650   16.6930 O   0  0  0  0  0  0  0  0  0  0  0  0
    7.0530   35.1340   17.3910 C   0  0  0  0  0  0  0  0  0  0  0  0
    6.6910   34.7070   18.4880 O   0  0  0  0  0  0  0  0  0  0  0  0
    8.1990   34.7380   16.6890 N   0  0  0  0  0  0  0  0  0  0  0  0
    9.3940   34.2270   17.3710 C   0  0  0  0  0  0  0  0  0  0  0  0
    8.2710   34.8450   15.2260 C   0  0  0  0  0  0  0  0  0  0  0  0
    8.9000   36.1430   14.7770 C   0  0  0  0  0  0  0  0  0  0  0  0
    9.3400   37.2050   15.5470 C   0  0  0  0  0  0  0  0  0  0  0  0
    9.3560   37.3620   17.0350 C   0  0  0  0  0  0  0  0  0  0  0  0
   10.3320   36.9160   17.6760 O   0  0  0  0  0  0  0  0  0  0  0  0
    8.4010   37.9110   17.6270 O   0  0  0  0  0  1  0  0  0  0  0  0
    9.7960   38.2300   14.6910 N   0  0  0  0  0  0  0  0  0  0  0  0
   10.3600   39.5340   15.0500 C   0  0  0  0  0  0  0  0  0  0  0  0
   11.7430   39.4780   15.7130 C   0  0  0  0  0  0  0  0  0  0  0  0
   11.8830   39.6380   17.1150 C   0  0  0  0  0  0  0  0  0  0  0  0
   13.1480   39.5870   17.7260 C   0  0  0  0  0  0  0  0  0  0  0  0
   14.2970   39.3780   16.9460 C   0  0  0  0  0  0  0  0  0  0  0  0
   14.1840   39.2180   15.5520 C   0  0  0  0  0  0  0  0  0  0  0  0
   15.3480   39.0090   14.7850 C   0  0  0  0  0  0  0  0  0  0  0  0
   15.2590   38.8470   13.3910 C   0  0  0  0  0  0  0  0  0  0  0  0
   14.0030   38.8930   12.7610 C   0  0  0  0  0  0  0  0  0  0  0  0
   12.8360   39.1020   13.5210 C   0  0  0  0  0  0  0  0  0  0  0  0
   12.9080   39.2670   14.9260 C   0  0  0  0  0  0  0  0  0  0  0  0
    9.6470   37.8230   13.3710 C   0  0  0  0  0  0  0  0  0  0  0  0
    9.9320   38.4700   12.1510 C   0  0  0  0  0  0  0  0  0  0  0  0
    9.6860   37.8110   10.9340 C   0  0  0  0  0  0  0  0  0  0  0  0
    9.1580   36.5080   10.9420 C   0  0  0  0  0  0  0  0  0  0  0  0
    8.9220   35.8660    9.7730 F   0  0  0  0  0  0  0  0  0  0  0  0
    8.8720   35.8700   12.1650 C   0  0  0  0  0  0  0  0  0  0  0  0
    9.1030   36.5110   13.4060 C   0  0  0  0  0  0  0  0  0  0  0  0
    5.0138   37.2414   19.0169 H   0  0  0  0  0  0  0  0  0  0  0  0
    5.8986   38.2011   17.7829 H   0  0  0  0  0  0  0  0  0  0  0  0
    4.1024   38.1760   17.7829 H   0  0  0  0  0  0  0  0  0  0  0  0
    4.5740   35.5052   17.5502 H   0  0  0  0  0  0  0  0  0  0  0  0
    4.4511   36.5927   16.1285 H   0  0  0  0  0  0  0  0  0  0  0  0
    9.2494   34.2888   18.4597 H   0  0  0  0  0  0  0  0  0  0  0  0
    9.5609   33.1788   17.0822 H   0  0  0  0  0  0  0  0  0  0  0  0
   10.2672   34.8304   17.0822 H   0  0  0  0  0  0  0  0  0  0  0  0
    8.8714   34.0084   14.8391 H   0  0  0  0  0  0  0  0  0  0  0  0
    7.2432   34.8159   14.8352 H   0  0  0  0  0  0  0  0  0  0  0  0
   10.4449   40.1343   14.1321 H   0  0  0  0  0  0  0  0  0  0  0  0
    9.6780   39.9715   15.7940 H   0  0  0  0  0  0  0  0  0  0  0  0
   10.9887   39.8045   17.7335 H   0  0  0  0  0  0  0  0  0  0  0  0
   13.2379   39.7108   18.8153 H   0  0  0  0  0  0  0  0  0  0  0  0
   15.2865   39.3393   17.4249 H   0  0  0  0  0  0  0  0  0  0  0  0
   16.3302   38.9725   15.2790 H   0  0  0  0  0  0  0  0  0  0  0  0
   16.1694   38.6848   12.7953 H   0  0  0  0  0  0  0  0  0  0  0  0
   13.9316   38.7653   11.6708 H   0  0  0  0  0  0  0  0  0  0  0  0
   11.8582   39.1375   13.0183 H   0  0  0  0  0  0  0  0  0  0  0  0
   10.3463   39.4890   12.1516 H   0  0  0  0  0  0  0  0  0  0  0  0
    9.9056   38.3124    9.9799 H   0  0  0  0  0  0  0  0  0  0  0  0
    8.4597   34.8502   12.1555 H   0  0  0  0  0  0  0  0  0  0  0  0
  1  2  1  0
  2  3  1  0
  3  4  1  0
  4  5  2  0
  4  6  1  0
  6  7  1  0
  6  8  1  0
  8  9  1  0
  9 10  2  0
 10 11  1  0
 11 12  2  0
 11 13  1  0
 10 14  1  0
 14 15  1  0
 15 16  1  0
 16 17  2  0
 17 18  1  0
 18 19  2  0
 19 20  1  0
 20 21  2  0
 21 22  1  0
 22 23  2  0
 23 24  1  0
 24 25  2  0
 14 26  1  0
 26 27  2  0
 27 28  1  0
 28 29  2  0
 29 30  1  0
 29 31  1  0
 31 32  2  0
 32  9  1  0
 25 16  1  0
 32 26  1  0
 25 20  1  0
  1 33  1  0
  1 34  1  0
  1 35  1  0
  2 36  1  0
  2 37  1  0
  7 38  1  0
  7 39  1  0
  7 40  1  0
  8 41  1  0
  8 42  1  0
 15 43  1  0
 15 44  1  0
 17 45  1  0
 18 46  1  0
 19 47  1  0
 21 48  1  0
 22 49  1  0
 23 50  1  0
 24 51  1  0
 27 52  1  0
 28 53  1  0
 31 54  1  0
M  CHG  1  13  -1
M  END
>  <meeko>  (360) 
{"free_energy": -5.21, "intermolecular_energy": -7.6, "internal_energy": -1.88, "cluster_size": 84, "cluster_id": 58, "rank_in_cluster": 51}

$$$$

     RDKit          3D

 54 57  0  0  0  0  0  0  0  0999 V2000
    9.9730   36.5190   17.8720 C   0  0  0  0  0  0  0  0  0  0  0  0
   10.3330   37.8440   17.1940 C   0  0  0  0  0  0  0  0  0  0  0  0
   10.2200   37.6940   15.7880 O   0  0  0  0  0  0  0  0  0  0  0  0
   10.5940   36.5390   15.1980 C   0  0  0  0  0  0  0  0  0  0  0  0
   11.7650   36.1600   15.1320 O   0  0  0  0  0  0  0  0  0  0  0  0
    9.4770   35.8590   14.6950 N   0  0  0  0  0  0  0  0  0  0  0  0
    9.1890   34.4650   15.0470 C   0  0  0  0  0  0  0  0  0  0  0  0
    8.5480   36.5080   13.7600 C   0  0  0  0  0  0  0  0  0  0  0  0
    9.1440   36.6700   12.3820 C   0  0  0  0  0  0  0  0  0  0  0  0
   10.1970   37.4750   11.9810 C   0  0  0  0  0  0  0  0  0  0  0  0
   11.0650   38.3830   12.7940 C   0  0  0  0  0  0  0  0  0  0  0  0
   10.5320   39.3310   13.4090 O   0  0  0  0  0  0  0  0  0  0  0  0
   12.3020   38.2070   12.8390 O   0  0  0  0  0  1  0  0  0  0  0  0
   10.3600   37.3480   10.5850 N   0  0  0  0  0  0  0  0  0  0  0  0
   11.3490   37.9990    9.7220 C   0  0  0  0  0  0  0  0  0  0  0  0
   11.5160   39.5070    9.9540 C   0  0  0  0  0  0  0  0  0  0  0  0
   10.3900   40.3680    9.9700 C   0  0  0  0  0  0  0  0  0  0  0  0
   10.5370   41.7490   10.1830 C   0  0  0  0  0  0  0  0  0  0  0  0
   11.8150   42.2960   10.3820 C   0  0  0  0  0  0  0  0  0  0  0  0
   12.9490   41.4620   10.3690 C   0  0  0  0  0  0  0  0  0  0  0  0
   14.2250   42.0290   10.5700 C   0  0  0  0  0  0  0  0  0  0  0  0
   15.3720   41.2150   10.5610 C   0  0  0  0  0  0  0  0  0  0  0  0
   15.2450   39.8310   10.3510 C   0  0  0  0  0  0  0  0  0  0  0  0
   13.9740   39.2590   10.1490 C   0  0  0  0  0  0  0  0  0  0  0  0
   12.8080   40.0640   10.1550 C   0  0  0  0  0  0  0  0  0  0  0  0
    9.4110   36.4620   10.0920 C   0  0  0  0  0  0  0  0  0  0  0  0
    9.1400   36.0070    8.7850 C   0  0  0  0  0  0  0  0  0  0  0  0
    8.1050   35.0840    8.5650 C   0  0  0  0  0  0  0  0  0  0  0  0
    7.3450   34.6170    9.6520 C   0  0  0  0  0  0  0  0  0  0  0  0
    6.3490   33.7230    9.4470 F   0  0  0  0  0  0  0  0  0  0  0  0
    7.6200   35.0780   10.9540 C   0  0  0  0  0  0  0  0  0  0  0  0
    8.6520   36.0140   11.2060 C   0  0  0  0  0  0  0  0  0  0  0  0
   10.0072   36.6449   18.9642 H   0  0  0  0  0  0  0  0  0  0  0  0
    8.9599   36.2157   17.5694 H   0  0  0  0  0  0  0  0  0  0  0  0
   10.6933   35.7447   17.5694 H   0  0  0  0  0  0  0  0  0  0  0  0
    9.6454   38.6313   17.5365 H   0  0  0  0  0  0  0  0  0  0  0  0
   11.3644   38.1241   17.4542 H   0  0  0  0  0  0  0  0  0  0  0  0
    9.1674   34.3602   16.1418 H   0  0  0  0  0  0  0  0  0  0  0  0
    8.2122   34.1762   14.6316 H   0  0  0  0  0  0  0  0  0  0  0  0
    9.9714   33.8128   14.6316 H   0  0  0  0  0  0  0  0  0  0  0  0
    7.6380   35.8949   13.6823 H   0  0  0  0  0  0  0  0  0  0  0  0
    8.3232   37.5116   14.1502 H   0  0  0  0  0  0  0  0  0  0  0  0
   12.3227   37.5169    9.8940 H   0  0  0  0  0  0  0  0  0  0  0  0
   10.9823   37.8841    8.6913 H   0  0  0  0  0  0  0  0  0  0  0  0
    9.3854   39.9483    9.8132 H   0  0  0  0  0  0  0  0  0  0  0  0
    9.6514   42.4014   10.1939 H   0  0  0  0  0  0  0  0  0  0  0  0
   11.9301   43.3773   10.5482 H   0  0  0  0  0  0  0  0  0  0  0  0
   14.3233   43.1122   10.7344 H   0  0  0  0  0  0  0  0  0  0  0  0
   16.3656   41.6602   10.7179 H   0  0  0  0  0  0  0  0  0  0  0  0
   16.1409   39.1928   10.3444 H   0  0  0  0  0  0  0  0  0  0  0  0
   13.8855   38.1749    9.9847 H   0  0  0  0  0  0  0  0  0  0  0  0
    9.7388   36.3748    7.9387 H   0  0  0  0  0  0  0  0  0  0  0  0
    7.8896   34.7278    7.5468 H   0  0  0  0  0  0  0  0  0  0  0  0
    7.0189   34.7020   11.7950 H   0  0  0  0  0  0  0  0  0  0  0  0
  1  2  1  0
  2  3  1  0
  3  4  1  0
  4  5  2  0
  4  6  1  0
  6  7  1  0
  6  8  1  0
  8  9  1  0
  9 10  2  0
 10 11  1  0
 11 12  2  0
 11 13  1  0
 10 14  1  0
 14 15  1  0
 15 16  1  0
 16 17  2  0
 17 18  1  0
 18 19  2  0
 19 20  1  0
 20 21  2  0
 21 22  1  0
 22 23  2  0
 23 24  1  0
 24 25  2  0
 14 26  1  0
 26 27  2  0
 27 28  1  0
 28 29  2  0
 29 30  1  0
 29 31  1  0
 31 32  2  0
 32  9  1  0
 25 16  1  0
 32 26  1  0
 25 20  1  0
  1 33  1  0
  1 34  1  0
  1 35  1  0
  2 36  1  0
  2 37  1  0
  7 38  1  0
  7 39  1  0
  7 40  1  0
  8 41  1  0
  8 42  1  0
 15 43  1  0
 15 44  1  0
 17 45  1  0
 18 46  1  0
 19 47  1  0
 21 48  1  0
 22 49  1  0
 23 50  1  0
 24 51  1  0
 27 52  1  0
 28 53  1  0
 31 54  1  0
M  CHG  1  13  -1
M  END
>  <meeko>  (361) 
{"free_energy": -4.69, "intermolecular_energy": -7.07, "internal_energy": -1.76, "cluster_size": 318, "cluster_id": 5, "rank_in_cluster": 313}

$$$$

     RDKit          3D

 54 57  0  0  0  0  0  0  0  0999 V2000
   11.9650   35.0980   16.5570 C   0  0  0  0  0  0  0  0  0  0  0  0
   11.4220   36.1610   17.5160 C   0  0  0  0  0  0  0  0  0  0  0  0
   10.1020   35.8110   17.9010 O   0  0  0  0  0  0  0  0  0  0  0  0
    9.1970   35.4510   16.9650 C   0  0  0  0  0  0  0  0  0  0  0  0
    8.9470   34.2780   16.6810 O   0  0  0  0  0  0  0  0  0  0  0  0
    8.6040   36.5830   16.3930 N   0  0  0  0  0  0  0  0  0  0  0  0
    7.2240   36.5750   15.8970 C   0  0  0  0  0  0  0  0  0  0  0  0
    9.3530   37.8370   16.2340 C   0  0  0  0  0  0  0  0  0  0  0  0
    9.7290   38.1010   14.7950 C   0  0  0  0  0  0  0  0  0  0  0  0
    9.8730   37.1960   13.7570 C   0  0  0  0  0  0  0  0  0  0  0  0
    9.6670   35.7150   13.7480 C   0  0  0  0  0  0  0  0  0  0  0  0
    8.5320   35.2680   13.4740 O   0  0  0  0  0  0  0  0  0  0  0  0
   10.6070   34.9390   14.0270 O   0  0  0  0  0  1  0  0  0  0  0  0
   10.2990   37.8910   12.6050 N   0  0  0  0  0  0  0  0  0  0  0  0
   10.5720   37.3560   11.2680 C   0  0  0  0  0  0  0  0  0  0  0  0
    9.5940   37.8140   10.1780 C   0  0  0  0  0  0  0  0  0  0  0  0
    9.5140   39.1780    9.8010 C   0  0  0  0  0  0  0  0  0  0  0  0
    8.6200   39.6020    8.8030 C   0  0  0  0  0  0  0  0  0  0  0  0
    7.7870   38.6700    8.1640 C   0  0  0  0  0  0  0  0  0  0  0  0
    7.8460   37.3100    8.5220 C   0  0  0  0  0  0  0  0  0  0  0  0
    7.0020   36.3870    7.8700 C   0  0  0  0  0  0  0  0  0  0  0  0
    7.0440   35.0240    8.2120 C   0  0  0  0  0  0  0  0  0  0  0  0
    7.9320   34.5790    9.2070 C   0  0  0  0  0  0  0  0  0  0  0  0
    8.7770   35.4950    9.8620 C   0  0  0  0  0  0  0  0  0  0  0  0
    8.7490   36.8730    9.5300 C   0  0  0  0  0  0  0  0  0  0  0  0
   10.4280   39.2410   12.9060 C   0  0  0  0  0  0  0  0  0  0  0  0
   10.8300   40.3440   12.1240 C   0  0  0  0  0  0  0  0  0  0  0  0
   10.8630   41.6290   12.6900 C   0  0  0  0  0  0  0  0  0  0  0  0
   10.4920   41.8080   14.0340 C   0  0  0  0  0  0  0  0  0  0  0  0
   10.5170   43.0450   14.5850 F   0  0  0  0  0  0  0  0  0  0  0  0
   10.0940   40.7010   14.8090 C   0  0  0  0  0  0  0  0  0  0  0  0
   10.0580   39.3930   14.2690 C   0  0  0  0  0  0  0  0  0  0  0  0
   12.3905   34.2650   17.1358 H   0  0  0  0  0  0  0  0  0  0  0  0
   11.1475   34.7241   15.9231 H   0  0  0  0  0  0  0  0  0  0  0  0
   12.7471   35.5412   15.9231 H   0  0  0  0  0  0  0  0  0  0  0  0
   12.0636   36.2141   18.4079 H   0  0  0  0  0  0  0  0  0  0  0  0
   11.4137   37.1406   17.0157 H   0  0  0  0  0  0  0  0  0  0  0  0
    6.5282   36.5710   16.7490 H   0  0  0  0  0  0  0  0  0  0  0  0
    7.0491   37.4721   15.2850 H   0  0  0  0  0  0  0  0  0  0  0  0
    7.0595   35.6759   15.2850 H   0  0  0  0  0  0  0  0  0  0  0  0
    8.7309   38.6690   16.5955 H   0  0  0  0  0  0  0  0  0  0  0  0
   10.2832   37.7496   16.8145 H   0  0  0  0  0  0  0  0  0  0  0  0
   11.5840   37.6711   10.9737 H   0  0  0  0  0  0  0  0  0  0  0  0
   10.4613   36.2642   11.3435 H   0  0  0  0  0  0  0  0  0  0  0  0
   10.1615   39.9159   10.2971 H   0  0  0  0  0  0  0  0  0  0  0  0
    8.5729   40.6646    8.5224 H   0  0  0  0  0  0  0  0  0  0  0  0
    7.0876   39.0028    7.3829 H   0  0  0  0  0  0  0  0  0  0  0  0
    6.3080   36.7350    7.0907 H   0  0  0  0  0  0  0  0  0  0  0  0
    6.3835   34.3072    7.7022 H   0  0  0  0  0  0  0  0  0  0  0  0
    7.9666   33.5126    9.4744 H   0  0  0  0  0  0  0  0  0  0  0  0
    9.4670   35.1373   10.6404 H   0  0  0  0  0  0  0  0  0  0  0  0
   11.1173   40.1979   11.0723 H   0  0  0  0  0  0  0  0  0  0  0  0
   11.1778   42.4915   12.0842 H   0  0  0  0  0  0  0  0  0  0  0  0
    9.8043   40.8567   15.8587 H   0  0  0  0  0  0  0  0  0  0  0  0
  1  2  1  0
  2  3  1  0
  3  4  1  0
  4  5  2  0
  4  6  1  0
  6  7  1  0
  6  8  1  0
  8  9  1  0
  9 10  2  0
 10 11  1  0
 11 12  2  0
 11 13  1  0
 10 14  1  0
 14 15  1  0
 15 16  1  0
 16 17  2  0
 17 18  1  0
 18 19  2  0
 19 20  1  0
 20 21  2  0
 21 22  1  0
 22 23  2  0
 23 24  1  0
 24 25  2  0
 14 26  1  0
 26 27  2  0
 27 28  1  0
 28 29  2  0
 29 30  1  0
 29 31  1  0
 31 32  2  0
 32  9  1  0
 25 16  1  0
 32 26  1  0
 25 20  1  0
  1 33  1  0
  1 34  1  0
  1 35  1  0
  2 36  1  0
  2 37  1  0
  7 38  1  0
  7 39  1  0
  7 40  1  0
  8 41  1  0
  8 42  1  0
 15 43  1  0
 15 44  1  0
 17 45  1  0
 18 46  1  0
 19 47  1  0
 21 48  1  0
 22 49  1  0
 23 50  1  0
 24 51  1  0
 27 52  1  0
 28 53  1  0
 31 54  1  0
M  CHG  1  13  -1
M  END
>  <meeko>  (362) 
{"free_energy": -7.07, "intermolecular_energy": -9.45, "internal_energy": -1.57, "cluster_size": 163, "cluster_id": 4, "rank_in_cluster": 24}

$$$$

     RDKit          3D

 54 57  0  0  0  0  0  0  0  0999 V2000
    7.7270   38.9650   10.1050 C   0  0  0  0  0  0  0  0  0  0  0  0
    8.8220   39.2300    9.0690 C   0  0  0  0  0  0  0  0  0  0  0  0
    9.3470   37.9910    8.6180 O   0  0  0  0  0  0  0  0  0  0  0  0
    8.8600   36.8310    9.1080 C   0  0  0  0  0  0  0  0  0  0  0  0
    8.0690   36.1150    8.4930 O   0  0  0  0  0  0  0  0  0  0  0  0
    9.3840   36.5770   10.3820 N   0  0  0  0  0  0  0  0  0  0  0  0
    8.5540   36.0750   11.4820 C   0  0  0  0  0  0  0  0  0  0  0  0
   10.7980   36.8320   10.6890 C   0  0  0  0  0  0  0  0  0  0  0  0
   10.9970   38.1270   11.4410 C   0  0  0  0  0  0  0  0  0  0  0  0
   11.5350   39.3180   10.9890 C   0  0  0  0  0  0  0  0  0  0  0  0
   12.0410   39.6810    9.6280 C   0  0  0  0  0  0  0  0  0  0  0  0
   12.5650   40.8030    9.4620 O   0  0  0  0  0  0  0  0  0  0  0  0
   11.9230   38.8840    8.6720 O   0  0  0  0  0  1  0  0  0  0  0  0
   11.5790   40.2340   12.0620 N   0  0  0  0  0  0  0  0  0  0  0  0
   12.0580   41.6190   12.0590 C   0  0  0  0  0  0  0  0  0  0  0  0
   11.1920   42.6030   12.8560 C   0  0  0  0  0  0  0  0  0  0  0  0
   11.7610   43.4180   13.8660 C   0  0  0  0  0  0  0  0  0  0  0  0
   10.9710   44.3210   14.5980 C   0  0  0  0  0  0  0  0  0  0  0  0
    9.5950   44.4240   14.3350 C   0  0  0  0  0  0  0  0  0  0  0  0
    9.0060   43.6240   13.3380 C   0  0  0  0  0  0  0  0  0  0  0  0
    7.6230   43.7400   13.0880 C   0  0  0  0  0  0  0  0  0  0  0  0
    7.0130   42.9510   12.0970 C   0  0  0  0  0  0  0  0  0  0  0  0
    7.7870   42.0420   11.3520 C   0  0  0  0  0  0  0  0  0  0  0  0
    9.1680   41.9210   11.5980 C   0  0  0  0  0  0  0  0  0  0  0  0
    9.7990   42.7080   12.5920 C   0  0  0  0  0  0  0  0  0  0  0  0
   11.0690   39.6270   13.2020 C   0  0  0  0  0  0  0  0  0  0  0  0
   10.9060   40.0940   14.5230 C   0  0  0  0  0  0  0  0  0  0  0  0
   10.3420   39.2550   15.4990 C   0  0  0  0  0  0  0  0  0  0  0  0
    9.9420   37.9530   15.1510 C   0  0  0  0  0  0  0  0  0  0  0  0
    9.3940   37.1410   16.0860 F   0  0  0  0  0  0  0  0  0  0  0  0
   10.1110   37.4920   13.8310 C   0  0  0  0  0  0  0  0  0  0  0  0
   10.6820   38.3120   12.8280 C   0  0  0  0  0  0  0  0  0  0  0  0
    8.1470   39.0666   11.1166 H   0  0  0  0  0  0  0  0  0  0  0  0
    6.9123   39.6919    9.9715 H   0  0  0  0  0  0  0  0  0  0  0  0
    7.3348   37.9460    9.9715 H   0  0  0  0  0  0  0  0  0  0  0  0
    8.3971   39.7814    8.2173 H   0  0  0  0  0  0  0  0  0  0  0  0
    9.6251   39.8279    9.5246 H   0  0  0  0  0  0  0  0  0  0  0  0
    9.0121   36.3521   12.4429 H   0  0  0  0  0  0  0  0  0  0  0  0
    7.5489   36.5167   11.4141 H   0  0  0  0  0  0  0  0  0  0  0  0
    8.4785   34.9797   11.4141 H   0  0  0  0  0  0  0  0  0  0  0  0
   11.1816   36.0039   11.3030 H   0  0  0  0  0  0  0  0  0  0  0  0
   11.3406   36.9099    9.7353 H   0  0  0  0  0  0  0  0  0  0  0  0
   13.0713   41.6312   12.4870 H   0  0  0  0  0  0  0  0  0  0  0  0
   12.0238   41.9553   11.0122 H   0  0  0  0  0  0  0  0  0  0  0  0
   12.8373   43.3428   14.0804 H   0  0  0  0  0  0  0  0  0  0  0  0
   11.4303   44.9472   15.3770 H   0  0  0  0  0  0  0  0  0  0  0  0
    8.9773   45.1305   14.9088 H   0  0  0  0  0  0  0  0  0  0  0  0
    7.0189   44.4509   13.6708 H   0  0  0  0  0  0  0  0  0  0  0  0
    5.9340   43.0439   11.9046 H   0  0  0  0  0  0  0  0  0  0  0  0
    7.3119   41.4245   10.5755 H   0  0  0  0  0  0  0  0  0  0  0  0
    9.7640   41.2066   11.0111 H   0  0  0  0  0  0  0  0  0  0  0  0
   11.2201   41.1141   14.7889 H   0  0  0  0  0  0  0  0  0  0  0  0
   10.2141   39.6153   16.5304 H   0  0  0  0  0  0  0  0  0  0  0  0
    9.7920   36.4713   13.5734 H   0  0  0  0  0  0  0  0  0  0  0  0
  1  2  1  0
  2  3  1  0
  3  4  1  0
  4  5  2  0
  4  6  1  0
  6  7  1  0
  6  8  1  0
  8  9  1  0
  9 10  2  0
 10 11  1  0
 11 12  2  0
 11 13  1  0
 10 14  1  0
 14 15  1  0
 15 16  1  0
 16 17  2  0
 17 18  1  0
 18 19  2  0
 19 20  1  0
 20 21  2  0
 21 22  1  0
 22 23  2  0
 23 24  1  0
 24 25  2  0
 14 26  1  0
 26 27  2  0
 27 28  1  0
 28 29  2  0
 29 30  1  0
 29 31  1  0
 31 32  2  0
 32  9  1  0
 25 16  1  0
 32 26  1  0
 25 20  1  0
  1 33  1  0
  1 34  1  0
  1 35  1  0
  2 36  1  0
  2 37  1  0
  7 38  1  0
  7 39  1  0
  7 40  1  0
  8 41  1  0
  8 42  1  0
 15 43  1  0
 15 44  1  0
 17 45  1  0
 18 46  1  0
 19 47  1  0
 21 48  1  0
 22 49  1  0
 23 50  1  0
 24 51  1  0
 27 52  1  0
 28 53  1  0
 31 54  1  0
M  CHG  1  13  -1
M  END
>  <meeko>  (363) 
{"free_energy": -4.77, "intermolecular_energy": -7.15, "internal_energy": -2.2, "cluster_size": 86, "cluster_id": 25, "rank_in_cluster": 71}

$$$$

     RDKit          3D

 54 57  0  0  0  0  0  0  0  0999 V2000
    3.2940   36.7780   16.9350 C   0  0  0  0  0  0  0  0  0  0  0  0
    4.7870   36.4440   16.9290 C   0  0  0  0  0  0  0  0  0  0  0  0
    5.5310   37.6220   17.1970 O   0  0  0  0  0  0  0  0  0  0  0  0
    5.6920   38.0450   18.4690 C   0  0  0  0  0  0  0  0  0  0  0  0
    5.4920   39.2070   18.8270 O   0  0  0  0  0  0  0  0  0  0  0  0
    6.1030   36.9880   19.2900 N   0  0  0  0  0  0  0  0  0  0  0  0
    5.1710   36.2770   20.1730 C   0  0  0  0  0  0  0  0  0  0  0  0
    7.5060   36.5540   19.3300 C   0  0  0  0  0  0  0  0  0  0  0  0
    8.2490   36.9030   18.0610 C   0  0  0  0  0  0  0  0  0  0  0  0
    8.8860   38.0850   17.7270 C   0  0  0  0  0  0  0  0  0  0  0  0
    9.0560   39.3370   18.5290 C   0  0  0  0  0  0  0  0  0  0  0  0
    8.0340   39.9490   18.9090 O   0  0  0  0  0  0  0  0  0  0  0  0
   10.1970   39.7720   18.7970 O   0  0  0  0  0  1  0  0  0  0  0  0
    9.3870   37.9760   16.4120 N   0  0  0  0  0  0  0  0  0  0  0  0
   10.1390   38.9680   15.6390 C   0  0  0  0  0  0  0  0  0  0  0  0
   11.6650   38.8180   15.7090 C   0  0  0  0  0  0  0  0  0  0  0  0
   12.2680   37.9770   16.6770 C   0  0  0  0  0  0  0  0  0  0  0  0
   13.6650   37.8370   16.7450 C   0  0  0  0  0  0  0  0  0  0  0  0
   14.4850   38.5390   15.8470 C   0  0  0  0  0  0  0  0  0  0  0  0
   13.9100   39.3820   14.8780 C   0  0  0  0  0  0  0  0  0  0  0  0
   14.7500   40.0790   13.9840 C   0  0  0  0  0  0  0  0  0  0  0  0
   14.1970   40.9270   13.0080 C   0  0  0  0  0  0  0  0  0  0  0  0
   12.8020   41.0790   12.9230 C   0  0  0  0  0  0  0  0  0  0  0  0
   11.9580   40.3870   13.8130 C   0  0  0  0  0  0  0  0  0  0  0  0
   12.4980   39.5280   14.8020 C   0  0  0  0  0  0  0  0  0  0  0  0
    9.0690   36.7230   15.9040 C   0  0  0  0  0  0  0  0  0  0  0  0
    9.3210   36.1250   14.6520 C   0  0  0  0  0  0  0  0  0  0  0  0
    8.8860   34.8130   14.4020 C   0  0  0  0  0  0  0  0  0  0  0  0
    8.2020   34.1030   15.4040 C   0  0  0  0  0  0  0  0  0  0  0  0
    7.7840   32.8360   15.1710 F   0  0  0  0  0  0  0  0  0  0  0  0
    7.9510   34.7080   16.6510 C   0  0  0  0  0  0  0  0  0  0  0  0
    8.3710   36.0310   16.9300 C   0  0  0  0  0  0  0  0  0  0  0  0
    2.9402   36.8572   17.9735 H   0  0  0  0  0  0  0  0  0  0  0  0
    3.1303   37.7350   16.4179 H   0  0  0  0  0  0  0  0  0  0  0  0
    2.7381   35.9820   16.4179 H   0  0  0  0  0  0  0  0  0  0  0  0
    4.9985   35.6915   17.7030 H   0  0  0  0  0  0  0  0  0  0  0  0
    5.0716   36.0438   15.9447 H   0  0  0  0  0  0  0  0  0  0  0  0
    5.4343   36.4778   21.2220 H   0  0  0  0  0  0  0  0  0  0  0  0
    4.1453   36.6242   19.9794 H   0  0  0  0  0  0  0  0  0  0  0  0
    5.2348   35.1961   19.9794 H   0  0  0  0  0  0  0  0  0  0  0  0
    8.0045   37.0452   20.1786 H   0  0  0  0  0  0  0  0  0  0  0  0
    7.5175   35.4593   19.4373 H   0  0  0  0  0  0  0  0  0  0  0  0
    9.8349   38.8826   14.5853 H   0  0  0  0  0  0  0  0  0  0  0  0
    9.9040   39.9474   16.0811 H   0  0  0  0  0  0  0  0  0  0  0  0
   11.6332   37.4253   17.3860 H   0  0  0  0  0  0  0  0  0  0  0  0
   14.1157   37.1777   17.5015 H   0  0  0  0  0  0  0  0  0  0  0  0
   15.5782   38.4298   15.9010 H   0  0  0  0  0  0  0  0  0  0  0  0
   15.8414   39.9586   14.0507 H   0  0  0  0  0  0  0  0  0  0  0  0
   14.8542   41.4700   12.3129 H   0  0  0  0  0  0  0  0  0  0  0  0
   12.3683   41.7407   12.1588 H   0  0  0  0  0  0  0  0  0  0  0  0
   10.8679   40.5147   13.7396 H   0  0  0  0  0  0  0  0  0  0  0  0
    9.8576   36.6853   13.8721 H   0  0  0  0  0  0  0  0  0  0  0  0
    9.0797   34.3432   13.4264 H   0  0  0  0  0  0  0  0  0  0  0  0
    7.4163   34.1394   17.4261 H   0  0  0  0  0  0  0  0  0  0  0  0
  1  2  1  0
  2  3  1  0
  3  4  1  0
  4  5  2  0
  4  6  1  0
  6  7  1  0
  6  8  1  0
  8  9  1  0
  9 10  2  0
 10 11  1  0
 11 12  2  0
 11 13  1  0
 10 14  1  0
 14 15  1  0
 15 16  1  0
 16 17  2  0
 17 18  1  0
 18 19  2  0
 19 20  1  0
 20 21  2  0
 21 22  1  0
 22 23  2  0
 23 24  1  0
 24 25  2  0
 14 26  1  0
 26 27  2  0
 27 28  1  0
 28 29  2  0
 29 30  1  0
 29 31  1  0
 31 32  2  0
 32  9  1  0
 25 16  1  0
 32 26  1  0
 25 20  1  0
  1 33  1  0
  1 34  1  0
  1 35  1  0
  2 36  1  0
  2 37  1  0
  7 38  1  0
  7 39  1  0
  7 40  1  0
  8 41  1  0
  8 42  1  0
 15 43  1  0
 15 44  1  0
 17 45  1  0
 18 46  1  0
 19 47  1  0
 21 48  1  0
 22 49  1  0
 23 50  1  0
 24 51  1  0
 27 52  1  0
 28 53  1  0
 31 54  1  0
M  CHG  1  13  -1
M  END
>  <meeko>  (364) 
{"free_energy": -5.66, "intermolecular_energy": -8.05, "internal_energy": -1.9, "cluster_size": 20, "cluster_id": 81, "rank_in_cluster": 4}

$$$$

     RDKit          3D

 54 57  0  0  0  0  0  0  0  0999 V2000
   17.6840   40.3170    3.6550 C   0  0  0  0  0  0  0  0  0  0  0  0
   18.2350   41.4330    4.5460 C   0  0  0  0  0  0  0  0  0  0  0  0
   18.2940   40.9730    5.8870 O   0  0  0  0  0  0  0  0  0  0  0  0
   17.1670   40.8920    6.6250 C   0  0  0  0  0  0  0  0  0  0  0  0
   16.1320   40.3560    6.2250 O   0  0  0  0  0  0  0  0  0  0  0  0
   17.3560   41.4880    7.8790 N   0  0  0  0  0  0  0  0  0  0  0  0
   18.6900   41.6730    8.4610 C   0  0  0  0  0  0  0  0  0  0  0  0
   16.2160   41.9350    8.6900 C   0  0  0  0  0  0  0  0  0  0  0  0
   15.3100   40.7920    9.0810 C   0  0  0  0  0  0  0  0  0  0  0  0
   13.9630   40.6220    8.8100 C   0  0  0  0  0  0  0  0  0  0  0  0
   13.0300   41.4920    8.0290 C   0  0  0  0  0  0  0  0  0  0  0  0
   13.1830   41.5780    6.7910 O   0  0  0  0  0  0  0  0  0  0  0  0
   12.1270   42.1360    8.6060 O   0  0  0  0  0  1  0  0  0  0  0  0
   13.5220   39.4340    9.4300 N   0  0  0  0  0  0  0  0  0  0  0  0
   12.1810   38.8410    9.4130 C   0  0  0  0  0  0  0  0  0  0  0  0
   11.0840   39.7090   10.0440 C   0  0  0  0  0  0  0  0  0  0  0  0
    9.8570   39.9320    9.3710 C   0  0  0  0  0  0  0  0  0  0  0  0
    8.8500   40.7250    9.9450 C   0  0  0  0  0  0  0  0  0  0  0  0
    9.0510   41.3140   11.2040 C   0  0  0  0  0  0  0  0  0  0  0  0
   10.2620   41.1090   11.8920 C   0  0  0  0  0  0  0  0  0  0  0  0
   10.4480   41.7080   13.1550 C   0  0  0  0  0  0  0  0  0  0  0  0
   11.6490   41.5180   13.8610 C   0  0  0  0  0  0  0  0  0  0  0  0
   12.6690   40.7260   13.3030 C   0  0  0  0  0  0  0  0  0  0  0  0
   12.4910   40.1260   12.0420 C   0  0  0  0  0  0  0  0  0  0  0  0
   11.2860   40.3070   11.3180 C   0  0  0  0  0  0  0  0  0  0  0  0
   14.5860   38.8440   10.1000 C   0  0  0  0  0  0  0  0  0  0  0  0
   14.6730   37.6700   10.8770 C   0  0  0  0  0  0  0  0  0  0  0  0
   15.9030   37.2940   11.4430 C   0  0  0  0  0  0  0  0  0  0  0  0
   17.0410   38.0910   11.2280 C   0  0  0  0  0  0  0  0  0  0  0  0
   18.2300   37.7320   11.7680 F   0  0  0  0  0  0  0  0  0  0  0  0
   16.9450   39.2640   10.4540 C   0  0  0  0  0  0  0  0  0  0  0  0
   15.7180   39.6720    9.8770 C   0  0  0  0  0  0  0  0  0  0  0  0
   17.2848   39.5084    4.2848 H   0  0  0  0  0  0  0  0  0  0  0  0
   16.8803   40.7179    3.0199 H   0  0  0  0  0  0  0  0  0  0  0  0
   18.4910   39.9227    3.0199 H   0  0  0  0  0  0  0  0  0  0  0  0
   19.2443   41.7098    4.2072 H   0  0  0  0  0  0  0  0  0  0  0  0
   17.5775   42.3128    4.4856 H   0  0  0  0  0  0  0  0  0  0  0  0
   18.6159   41.6627    9.5585 H   0  0  0  0  0  0  0  0  0  0  0  0
   19.3505   40.8579    8.1305 H   0  0  0  0  0  0  0  0  0  0  0  0
   19.1038   42.6371    8.1305 H   0  0  0  0  0  0  0  0  0  0  0  0
   16.5976   42.4130    9.6042 H   0  0  0  0  0  0  0  0  0  0  0  0
   15.6274   42.6402    8.0848 H   0  0  0  0  0  0  0  0  0  0  0  0
   11.9051   38.6493    8.3655 H   0  0  0  0  0  0  0  0  0  0  0  0
   12.2397   37.9265   10.0215 H   0  0  0  0  0  0  0  0  0  0  0  0
    9.6907   39.4768    8.3835 H   0  0  0  0  0  0  0  0  0  0  0  0
    7.9033   40.8849    9.4082 H   0  0  0  0  0  0  0  0  0  0  0  0
    8.2621   41.9356   11.6526 H   0  0  0  0  0  0  0  0  0  0  0  0
    9.6495   42.3270   13.5900 H   0  0  0  0  0  0  0  0  0  0  0  0
   11.7905   41.9869   14.8460 H   0  0  0  0  0  0  0  0  0  0  0  0
   13.6090   40.5750   13.8540 H   0  0  0  0  0  0  0  0  0  0  0  0
   13.2957   39.5101   11.6140 H   0  0  0  0  0  0  0  0  0  0  0  0
   13.7793   37.0497   11.0396 H   0  0  0  0  0  0  0  0  0  0  0  0
   15.9751   36.3804   12.0514 H   0  0  0  0  0  0  0  0  0  0  0  0
   17.8441   39.8773   10.2941 H   0  0  0  0  0  0  0  0  0  0  0  0
  1  2  1  0
  2  3  1  0
  3  4  1  0
  4  5  2  0
  4  6  1  0
  6  7  1  0
  6  8  1  0
  8  9  1  0
  9 10  2  0
 10 11  1  0
 11 12  2  0
 11 13  1  0
 10 14  1  0
 14 15  1  0
 15 16  1  0
 16 17  2  0
 17 18  1  0
 18 19  2  0
 19 20  1  0
 20 21  2  0
 21 22  1  0
 22 23  2  0
 23 24  1  0
 24 25  2  0
 14 26  1  0
 26 27  2  0
 27 28  1  0
 28 29  2  0
 29 30  1  0
 29 31  1  0
 31 32  2  0
 32  9  1  0
 25 16  1  0
 32 26  1  0
 25 20  1  0
  1 33  1  0
  1 34  1  0
  1 35  1  0
  2 36  1  0
  2 37  1  0
  7 38  1  0
  7 39  1  0
  7 40  1  0
  8 41  1  0
  8 42  1  0
 15 43  1  0
 15 44  1  0
 17 45  1  0
 18 46  1  0
 19 47  1  0
 21 48  1  0
 22 49  1  0
 23 50  1  0
 24 51  1  0
 27 52  1  0
 28 53  1  0
 31 54  1  0
M  CHG  1  13  -1
M  END
>  <meeko>  (365) 
{"free_energy": -4.15, "intermolecular_energy": -6.54, "internal_energy": -2.05, "cluster_size": 30, "cluster_id": 35, "rank_in_cluster": 25}

$$$$

     RDKit          3D

 54 57  0  0  0  0  0  0  0  0999 V2000
   15.5920   36.7710   10.6550 C   0  0  0  0  0  0  0  0  0  0  0  0
   14.1620   37.2740   10.4440 C   0  0  0  0  0  0  0  0  0  0  0  0
   14.1000   38.6530   10.7680 O   0  0  0  0  0  0  0  0  0  0  0  0
   13.3760   39.0670   11.8300 C   0  0  0  0  0  0  0  0  0  0  0  0
   12.5680   38.3480   12.4200 O   0  0  0  0  0  0  0  0  0  0  0  0
   13.6860   40.3950   12.1490 N   0  0  0  0  0  0  0  0  0  0  0  0
   14.5800   40.7440   13.2580 C   0  0  0  0  0  0  0  0  0  0  0  0
   13.1010   41.5150   11.3980 C   0  0  0  0  0  0  0  0  0  0  0  0
   11.6490   41.2780   11.0560 C   0  0  0  0  0  0  0  0  0  0  0  0
   11.1110   40.4560   10.0810 C   0  0  0  0  0  0  0  0  0  0  0  0
   11.8000   39.5450    9.1150 C   0  0  0  0  0  0  0  0  0  0  0  0
   11.4040   38.3640    9.0170 O   0  0  0  0  0  0  0  0  0  0  0  0
   12.7650   39.9540    8.4330 O   0  0  0  0  0  1  0  0  0  0  0  0
    9.7070   40.6040   10.0860 N   0  0  0  0  0  0  0  0  0  0  0  0
    8.7180   39.9310    9.2400 C   0  0  0  0  0  0  0  0  0  0  0  0
    8.6290   38.4110    9.4360 C   0  0  0  0  0  0  0  0  0  0  0  0
    8.2500   37.5630    8.3660 C   0  0  0  0  0  0  0  0  0  0  0  0
    8.1680   36.1700    8.5400 C   0  0  0  0  0  0  0  0  0  0  0  0
    8.4620   35.6010    9.7900 C   0  0  0  0  0  0  0  0  0  0  0  0
    8.8390   36.4230   10.8680 C   0  0  0  0  0  0  0  0  0  0  0  0
    9.1310   35.8330   12.1160 C   0  0  0  0  0  0  0  0  0  0  0  0
    9.5100   36.6350   13.2070 C   0  0  0  0  0  0  0  0  0  0  0  0
    9.5990   38.0300   13.0530 C   0  0  0  0  0  0  0  0  0  0  0  0
    9.3080   38.6240   11.8100 C   0  0  0  0  0  0  0  0  0  0  0  0
    8.9260   37.8320   10.7000 C   0  0  0  0  0  0  0  0  0  0  0  0
    9.3470   41.5220   11.0650 C   0  0  0  0  0  0  0  0  0  0  0  0
    8.0920   42.0270   11.4630 C   0  0  0  0  0  0  0  0  0  0  0  0
    8.0130   42.9610   12.5100 C   0  0  0  0  0  0  0  0  0  0  0  0
    9.1870   43.3840   13.1560 C   0  0  0  0  0  0  0  0  0  0  0  0
    9.1170   44.2800   14.1690 F   0  0  0  0  0  0  0  0  0  0  0  0
   10.4370   42.8770   12.7510 C   0  0  0  0  0  0  0  0  0  0  0  0
   10.5500   41.9410   11.6940 C   0  0  0  0  0  0  0  0  0  0  0  0
   15.7997   36.6979   11.7327 H   0  0  0  0  0  0  0  0  0  0  0  0
   15.7040   35.7795   10.1920 H   0  0  0  0  0  0  0  0  0  0  0  0
   16.3001   37.4740   10.1920 H   0  0  0  0  0  0  0  0  0  0  0  0
   13.8727   37.1298    9.3926 H   0  0  0  0  0  0  0  0  0  0  0  0
   13.4731   36.7111   11.0910 H   0  0  0  0  0  0  0  0  0  0  0  0
   14.0730   40.5461   14.2139 H   0  0  0  0  0  0  0  0  0  0  0  0
   15.4954   40.1372   13.1959 H   0  0  0  0  0  0  0  0  0  0  0  0
   14.8422   41.8105   13.1959 H   0  0  0  0  0  0  0  0  0  0  0  0
   13.1767   42.4277   12.0073 H   0  0  0  0  0  0  0  0  0  0  0  0
   13.6575   41.6153   10.4545 H   0  0  0  0  0  0  0  0  0  0  0  0
    7.7302   40.3625    9.4593 H   0  0  0  0  0  0  0  0  0  0  0  0
    9.0409   40.0902    8.2006 H   0  0  0  0  0  0  0  0  0  0  0  0
    8.0164   38.0010    7.3844 H   0  0  0  0  0  0  0  0  0  0  0  0
    7.8738   35.5265    7.6978 H   0  0  0  0  0  0  0  0  0  0  0  0
    8.3975   34.5114    9.9264 H   0  0  0  0  0  0  0  0  0  0  0  0
    9.0619   34.7417   12.2359 H   0  0  0  0  0  0  0  0  0  0  0  0
    9.7364   36.1722   14.1789 H   0  0  0  0  0  0  0  0  0  0  0  0
    9.8966   38.6584   13.9054 H   0  0  0  0  0  0  0  0  0  0  0  0
    9.3782   39.7162   11.6999 H   0  0  0  0  0  0  0  0  0  0  0  0
    7.1764   41.6904   10.9548 H   0  0  0  0  0  0  0  0  0  0  0  0
    7.0364   43.3592   12.8225 H   0  0  0  0  0  0  0  0  0  0  0  0
   11.3470   43.2159   13.2678 H   0  0  0  0  0  0  0  0  0  0  0  0
  1  2  1  0
  2  3  1  0
  3  4  1  0
  4  5  2  0
  4  6  1  0
  6  7  1  0
  6  8  1  0
  8  9  1  0
  9 10  2  0
 10 11  1  0
 11 12  2  0
 11 13  1  0
 10 14  1  0
 14 15  1  0
 15 16  1  0
 16 17  2  0
 17 18  1  0
 18 19  2  0
 19 20  1  0
 20 21  2  0
 21 22  1  0
 22 23  2  0
 23 24  1  0
 24 25  2  0
 14 26  1  0
 26 27  2  0
 27 28  1  0
 28 29  2  0
 29 30  1  0
 29 31  1  0
 31 32  2  0
 32  9  1  0
 25 16  1  0
 32 26  1  0
 25 20  1  0
  1 33  1  0
  1 34  1  0
  1 35  1  0
  2 36  1  0
  2 37  1  0
  7 38  1  0
  7 39  1  0
  7 40  1  0
  8 41  1  0
  8 42  1  0
 15 43  1  0
 15 44  1  0
 17 45  1  0
 18 46  1  0
 19 47  1  0
 21 48  1  0
 22 49  1  0
 23 50  1  0
 24 51  1  0
 27 52  1  0
 28 53  1  0
 31 54  1  0
M  CHG  1  13  -1
M  END
>  <meeko>  (366) 
{"free_energy": -6.38, "intermolecular_energy": -8.76, "internal_energy": -2.09, "cluster_size": 417, "cluster_id": 2, "rank_in_cluster": 224}

$$$$

     RDKit          3D

 54 57  0  0  0  0  0  0  0  0999 V2000
   11.8370   44.8920   13.2470 C   0  0  0  0  0  0  0  0  0  0  0  0
   12.7530   44.2170   14.2700 C   0  0  0  0  0  0  0  0  0  0  0  0
   13.2260   42.9900   13.7370 O   0  0  0  0  0  0  0  0  0  0  0  0
   12.7800   41.8180   14.2370 C   0  0  0  0  0  0  0  0  0  0  0  0
   12.2510   41.7120   15.3450 O   0  0  0  0  0  0  0  0  0  0  0  0
   13.0020   40.7780   13.3250 N   0  0  0  0  0  0  0  0  0  0  0  0
   13.0960   41.0140   11.8800 C   0  0  0  0  0  0  0  0  0  0  0  0
   13.1230   39.3850   13.7740 C   0  0  0  0  0  0  0  0  0  0  0  0
   12.1220   38.4770   13.0990 C   0  0  0  0  0  0  0  0  0  0  0  0
   12.0800   38.0630   11.7790 C   0  0  0  0  0  0  0  0  0  0  0  0
   13.0220   38.3600   10.6560 C   0  0  0  0  0  0  0  0  0  0  0  0
   12.5500   38.7250    9.5570 O   0  0  0  0  0  0  0  0  0  0  0  0
   14.2560   38.2250   10.8070 O   0  0  0  0  0  1  0  0  0  0  0  0
   10.9270   37.2720   11.5880 N   0  0  0  0  0  0  0  0  0  0  0  0
   10.4700   36.6080   10.3640 C   0  0  0  0  0  0  0  0  0  0  0  0
    9.4620   37.4120    9.5320 C   0  0  0  0  0  0  0  0  0  0  0  0
    9.3450   38.8160    9.6910 C   0  0  0  0  0  0  0  0  0  0  0  0
    8.4230   39.5560    8.9320 C   0  0  0  0  0  0  0  0  0  0  0  0
    7.5990   38.9070    7.9990 C   0  0  0  0  0  0  0  0  0  0  0  0
    7.6950   37.5130    7.8230 C   0  0  0  0  0  0  0  0  0  0  0  0
    6.8600   36.8770    6.8820 C   0  0  0  0  0  0  0  0  0  0  0  0
    6.9380   35.4860    6.6900 C   0  0  0  0  0  0  0  0  0  0  0  0
    7.8550   34.7280    7.4400 C   0  0  0  0  0  0  0  0  0  0  0  0
    8.6910   35.3570    8.3820 C   0  0  0  0  0  0  0  0  0  0  0  0
    8.6260   36.7570    8.5870 C   0  0  0  0  0  0  0  0  0  0  0  0
   10.2300   37.1800   12.7870 C   0  0  0  0  0  0  0  0  0  0  0  0
    9.0260   36.5300   13.1270 C   0  0  0  0  0  0  0  0  0  0  0  0
    8.5430   36.5940   14.4440 C   0  0  0  0  0  0  0  0  0  0  0  0
    9.2660   37.3060   15.4170 C   0  0  0  0  0  0  0  0  0  0  0  0
    8.8070   37.3690   16.6900 F   0  0  0  0  0  0  0  0  0  0  0  0
   10.4660   37.9560   15.0690 C   0  0  0  0  0  0  0  0  0  0  0  0
   10.9740   37.9150   13.7480 C   0  0  0  0  0  0  0  0  0  0  0  0
   11.0593   45.4651   13.7731 H   0  0  0  0  0  0  0  0  0  0  0  0
   12.4294   45.5711   12.6162 H   0  0  0  0  0  0  0  0  0  0  0  0
   11.3638   44.1250   12.6162 H   0  0  0  0  0  0  0  0  0  0  0  0
   13.6063   44.8754   14.4902 H   0  0  0  0  0  0  0  0  0  0  0  0
   12.1925   44.0249   15.1968 H   0  0  0  0  0  0  0  0  0  0  0  0
   13.4975   42.0219   11.6984 H   0  0  0  0  0  0  0  0  0  0  0  0
   13.7649   40.2662   11.4291 H   0  0  0  0  0  0  0  0  0  0  0  0
   12.0961   40.9309   11.4291 H   0  0  0  0  0  0  0  0  0  0  0  0
   14.1372   39.0261   13.5448 H   0  0  0  0  0  0  0  0  0  0  0  0
   12.9238   39.3611   14.8555 H   0  0  0  0  0  0  0  0  0  0  0  0
   11.3498   36.4074    9.7349 H   0  0  0  0  0  0  0  0  0  0  0  0
    9.9474   35.6947   10.6846 H   0  0  0  0  0  0  0  0  0  0  0  0
    9.9859   39.3338   10.4198 H   0  0  0  0  0  0  0  0  0  0  0  0
    8.3467   40.6448    9.0689 H   0  0  0  0  0  0  0  0  0  0  0  0
    6.8779   39.4876    7.4050 H   0  0  0  0  0  0  0  0  0  0  0  0
    6.1442   37.4714    6.2952 H   0  0  0  0  0  0  0  0  0  0  0  0
    6.2841   34.9926    5.9558 H   0  0  0  0  0  0  0  0  0  0  0  0
    7.9192   33.6402    7.2901 H   0  0  0  0  0  0  0  0  0  0  0  0
    9.4027   34.7544    8.9654 H   0  0  0  0  0  0  0  0  0  0  0  0
    8.4656   35.9733   12.3615 H   0  0  0  0  0  0  0  0  0  0  0  0
    7.6033   36.0894   14.7131 H   0  0  0  0  0  0  0  0  0  0  0  0
   11.0214   38.5083   15.8413 H   0  0  0  0  0  0  0  0  0  0  0  0
  1  2  1  0
  2  3  1  0
  3  4  1  0
  4  5  2  0
  4  6  1  0
  6  7  1  0
  6  8  1  0
  8  9  1  0
  9 10  2  0
 10 11  1  0
 11 12  2  0
 11 13  1  0
 10 14  1  0
 14 15  1  0
 15 16  1  0
 16 17  2  0
 17 18  1  0
 18 19  2  0
 19 20  1  0
 20 21  2  0
 21 22  1  0
 22 23  2  0
 23 24  1  0
 24 25  2  0
 14 26  1  0
 26 27  2  0
 27 28  1  0
 28 29  2  0
 29 30  1  0
 29 31  1  0
 31 32  2  0
 32  9  1  0
 25 16  1  0
 32 26  1  0
 25 20  1  0
  1 33  1  0
  1 34  1  0
  1 35  1  0
  2 36  1  0
  2 37  1  0
  7 38  1  0
  7 39  1  0
  7 40  1  0
  8 41  1  0
  8 42  1  0
 15 43  1  0
 15 44  1  0
 17 45  1  0
 18 46  1  0
 19 47  1  0
 21 48  1  0
 22 49  1  0
 23 50  1  0
 24 51  1  0
 27 52  1  0
 28 53  1  0
 31 54  1  0
M  CHG  1  13  -1
M  END
>  <meeko>  (367) 
{"free_energy": -5.61, "intermolecular_energy": -8.0, "internal_energy": -1.51, "cluster_size": 42, "cluster_id": 46, "rank_in_cluster": 16}

$$$$

     RDKit          3D

 54 57  0  0  0  0  0  0  0  0999 V2000
    8.2720   41.0110   10.5780 C   0  0  0  0  0  0  0  0  0  0  0  0
    9.5590   40.5880   11.2910 C   0  0  0  0  0  0  0  0  0  0  0  0
   10.5120   40.1730   10.3260 O   0  0  0  0  0  0  0  0  0  0  0  0
   11.8320   40.2730   10.5920 C   0  0  0  0  0  0  0  0  0  0  0  0
   12.3060   41.1050   11.3680 O   0  0  0  0  0  0  0  0  0  0  0  0
   12.5530   39.3090    9.8760 N   0  0  0  0  0  0  0  0  0  0  0  0
   13.3060   39.6410    8.6610 C   0  0  0  0  0  0  0  0  0  0  0  0
   12.5660   37.9010   10.2940 C   0  0  0  0  0  0  0  0  0  0  0  0
   11.3420   37.5320   11.0990 C   0  0  0  0  0  0  0  0  0  0  0  0
   11.0750   37.7820   12.4330 C   0  0  0  0  0  0  0  0  0  0  0  0
   11.8950   38.5130   13.4500 C   0  0  0  0  0  0  0  0  0  0  0  0
   11.3840   38.7680   14.5610 O   0  0  0  0  0  0  0  0  0  0  0  0
   13.0610   38.8770   13.1840 O   0  0  0  0  0  1  0  0  0  0  0  0
    9.8360   37.1950   12.7660 N   0  0  0  0  0  0  0  0  0  0  0  0
    9.1400   37.2060   14.0560 C   0  0  0  0  0  0  0  0  0  0  0  0
    9.3820   35.9680   14.9300 C   0  0  0  0  0  0  0  0  0  0  0  0
   10.3910   35.0300   14.5970 C   0  0  0  0  0  0  0  0  0  0  0  0
   10.6160   33.8950   15.3950 C   0  0  0  0  0  0  0  0  0  0  0  0
    9.8340   33.6750   16.5400 C   0  0  0  0  0  0  0  0  0  0  0  0
    8.8250   34.5920   16.8920 C   0  0  0  0  0  0  0  0  0  0  0  0
    8.0490   34.3550   18.0450 C   0  0  0  0  0  0  0  0  0  0  0  0
    7.0350   35.2570   18.4150 C   0  0  0  0  0  0  0  0  0  0  0  0
    6.7950   36.3990   17.6310 C   0  0  0  0  0  0  0  0  0  0  0  0
    7.5660   36.6410   16.4770 C   0  0  0  0  0  0  0  0  0  0  0  0
    8.5910   35.7430   16.0900 C   0  0  0  0  0  0  0  0  0  0  0  0
    9.3090   36.5690   11.6440 C   0  0  0  0  0  0  0  0  0  0  0  0
    8.1210   35.8350   11.4470 C   0  0  0  0  0  0  0  0  0  0  0  0
    7.8250   35.3080   10.1790 C   0  0  0  0  0  0  0  0  0  0  0  0
    8.7160   35.5170    9.1130 C   0  0  0  0  0  0  0  0  0  0  0  0
    8.4340   35.0150    7.8870 F   0  0  0  0  0  0  0  0  0  0  0  0
    9.9020   36.2470    9.3170 C   0  0  0  0  0  0  0  0  0  0  0  0
   10.2320   36.7850   10.5850 C   0  0  0  0  0  0  0  0  0  0  0  0
    7.5049   41.2631   11.3250 H   0  0  0  0  0  0  0  0  0  0  0  0
    8.4736   41.8901    9.9484 H   0  0  0  0  0  0  0  0  0  0  0  0
    7.9127   40.1837    9.9484 H   0  0  0  0  0  0  0  0  0  0  0  0
    9.9599   41.4385   11.8619 H   0  0  0  0  0  0  0  0  0  0  0  0
    9.3442   39.7573   11.9793 H   0  0  0  0  0  0  0  0  0  0  0  0
   14.2798   40.0704    8.9390 H   0  0  0  0  0  0  0  0  0  0  0  0
   13.4636   38.7289    8.0666 H   0  0  0  0  0  0  0  0  0  0  0  0
   12.7390   40.3726    8.0666 H   0  0  0  0  0  0  0  0  0  0  0  0
   12.6044   37.2657    9.3968 H   0  0  0  0  0  0  0  0  0  0  0  0
   13.4484   37.7470   10.9325 H   0  0  0  0  0  0  0  0  0  0  0  0
    9.4739   38.0913   14.6171 H   0  0  0  0  0  0  0  0  0  0  0  0
    8.0642   37.2169   13.8266 H   0  0  0  0  0  0  0  0  0  0  0  0
   11.0073   35.1927   13.7005 H   0  0  0  0  0  0  0  0  0  0  0  0
   11.4051   33.1788   15.1223 H   0  0  0  0  0  0  0  0  0  0  0  0
   10.0096   32.7854   17.1628 H   0  0  0  0  0  0  0  0  0  0  0  0
    8.2373   33.4611   18.6577 H   0  0  0  0  0  0  0  0  0  0  0  0
    6.4315   35.0693   19.3153 H   0  0  0  0  0  0  0  0  0  0  0  0
    6.0029   37.1057   17.9195 H   0  0  0  0  0  0  0  0  0  0  0  0
    7.3699   37.5370   15.8698 H   0  0  0  0  0  0  0  0  0  0  0  0
    7.4270   35.6754   12.2853 H   0  0  0  0  0  0  0  0  0  0  0  0
    6.8998   34.7343   10.0214 H   0  0  0  0  0  0  0  0  0  0  0  0
   10.5886   36.4033    8.4719 H   0  0  0  0  0  0  0  0  0  0  0  0
  1  2  1  0
  2  3  1  0
  3  4  1  0
  4  5  2  0
  4  6  1  0
  6  7  1  0
  6  8  1  0
  8  9  1  0
  9 10  2  0
 10 11  1  0
 11 12  2  0
 11 13  1  0
 10 14  1  0
 14 15  1  0
 15 16  1  0
 16 17  2  0
 17 18  1  0
 18 19  2  0
 19 20  1  0
 20 21  2  0
 21 22  1  0
 22 23  2  0
 23 24  1  0
 24 25  2  0
 14 26  1  0
 26 27  2  0
 27 28  1  0
 28 29  2  0
 29 30  1  0
 29 31  1  0
 31 32  2  0
 32  9  1  0
 25 16  1  0
 32 26  1  0
 25 20  1  0
  1 33  1  0
  1 34  1  0
  1 35  1  0
  2 36  1  0
  2 37  1  0
  7 38  1  0
  7 39  1  0
  7 40  1  0
  8 41  1  0
  8 42  1  0
 15 43  1  0
 15 44  1  0
 17 45  1  0
 18 46  1  0
 19 47  1  0
 21 48  1  0
 22 49  1  0
 23 50  1  0
 24 51  1  0
 27 52  1  0
 28 53  1  0
 31 54  1  0
M  CHG  1  13  -1
M  END
>  <meeko>  (368) 
{"free_energy": -6.47, "intermolecular_energy": -8.86, "internal_energy": -2.02, "cluster_size": 253, "cluster_id": 8, "rank_in_cluster": 58}

$$$$

     RDKit          3D

 54 57  0  0  0  0  0  0  0  0999 V2000
    5.8270   39.4820   19.9730 C   0  0  0  0  0  0  0  0  0  0  0  0
    6.8620   40.6080   20.0280 C   0  0  0  0  0  0  0  0  0  0  0  0
    7.8730   40.3600   19.0640 O   0  0  0  0  0  0  0  0  0  0  0  0
    9.0310   39.7710   19.4340 C   0  0  0  0  0  0  0  0  0  0  0  0
    9.9810   40.3890   19.9170 O   0  0  0  0  0  0  0  0  0  0  0  0
    8.9790   38.3920   19.1970 N   0  0  0  0  0  0  0  0  0  0  0  0
    9.6760   37.4260   20.0520 C   0  0  0  0  0  0  0  0  0  0  0  0
    8.2400   37.8430   18.0510 C   0  0  0  0  0  0  0  0  0  0  0  0
    9.1590   37.4010   16.9370 C   0  0  0  0  0  0  0  0  0  0  0  0
    9.7280   38.1610   15.9300 C   0  0  0  0  0  0  0  0  0  0  0  0
    9.6310   39.6310   15.6730 C   0  0  0  0  0  0  0  0  0  0  0  0
    9.5330   40.0300   14.4930 O   0  0  0  0  0  0  0  0  0  0  0  0
    9.6660   40.4470   16.6210 O   0  0  0  0  0  1  0  0  0  0  0  0
   10.4630   37.3090   15.0780 N   0  0  0  0  0  0  0  0  0  0  0  0
   11.2410   37.6620   13.8870 C   0  0  0  0  0  0  0  0  0  0  0  0
   10.4870   37.5220   12.5590 C   0  0  0  0  0  0  0  0  0  0  0  0
    9.8730   36.2960   12.1980 C   0  0  0  0  0  0  0  0  0  0  0  0
    9.1800   36.1640   10.9820 C   0  0  0  0  0  0  0  0  0  0  0  0
    9.0910   37.2540   10.1020 C   0  0  0  0  0  0  0  0  0  0  0  0
    9.6940   38.4820   10.4370 C   0  0  0  0  0  0  0  0  0  0  0  0
    9.5950   39.5660    9.5410 C   0  0  0  0  0  0  0  0  0  0  0  0
   10.1900   40.8010    9.8540 C   0  0  0  0  0  0  0  0  0  0  0  0
   10.8860   40.9540   11.0660 C   0  0  0  0  0  0  0  0  0  0  0  0
   10.9890   39.8750   11.9650 C   0  0  0  0  0  0  0  0  0  0  0  0
   10.3960   38.6240   11.6650 C   0  0  0  0  0  0  0  0  0  0  0  0
   10.3640   36.0030   15.5400 C   0  0  0  0  0  0  0  0  0  0  0  0
   10.8910   34.7900   15.0510 C   0  0  0  0  0  0  0  0  0  0  0  0
   10.6360   33.5890   15.7330 C   0  0  0  0  0  0  0  0  0  0  0  0
    9.8570   33.6040   16.9030 C   0  0  0  0  0  0  0  0  0  0  0  0
    9.6110   32.4500   17.5680 F   0  0  0  0  0  0  0  0  0  0  0  0
    9.3310   34.8190   17.3840 C   0  0  0  0  0  0  0  0  0  0  0  0
    9.5650   36.0440   16.7140 C   0  0  0  0  0  0  0  0  0  0  0  0
    5.5538   39.1848   20.9962 H   0  0  0  0  0  0  0  0  0  0  0  0
    4.9304   39.8337   19.4416 H   0  0  0  0  0  0  0  0  0  0  0  0
    6.2529   38.6181   19.4416 H   0  0  0  0  0  0  0  0  0  0  0  0
    6.3726   41.5685   19.8091 H   0  0  0  0  0  0  0  0  0  0  0  0
    7.3104   40.6490   21.0316 H   0  0  0  0  0  0  0  0  0  0  0  0
    9.4964   37.6748   21.1083 H   0  0  0  0  0  0  0  0  0  0  0  0
    9.2989   36.4137   19.8445 H   0  0  0  0  0  0  0  0  0  0  0  0
   10.7556   37.4648   19.8445 H   0  0  0  0  0  0  0  0  0  0  0  0
    7.6530   36.9769   18.3904 H   0  0  0  0  0  0  0  0  0  0  0  0
    7.5901   38.6381   17.6566 H   0  0  0  0  0  0  0  0  0  0  0  0
   11.5644   38.7086   13.9878 H   0  0  0  0  0  0  0  0  0  0  0  0
   12.0784   36.9501   13.8431 H   0  0  0  0  0  0  0  0  0  0  0  0
    9.9399   35.4352   12.8796 H   0  0  0  0  0  0  0  0  0  0  0  0
    8.7072   35.2060   10.7200 H   0  0  0  0  0  0  0  0  0  0  0  0
    8.5499   37.1490    9.1501 H   0  0  0  0  0  0  0  0  0  0  0  0
    9.0500   39.4451    8.5931 H   0  0  0  0  0  0  0  0  0  0  0  0
   10.1112   41.6448    9.1528 H   0  0  0  0  0  0  0  0  0  0  0  0
   11.3515   41.9196   11.3128 H   0  0  0  0  0  0  0  0  0  0  0  0
   11.5359   40.0050   12.9105 H   0  0  0  0  0  0  0  0  0  0  0  0
   11.5015   34.7844   14.1360 H   0  0  0  0  0  0  0  0  0  0  0  0
   11.0441   32.6407   15.3532 H   0  0  0  0  0  0  0  0  0  0  0  0
    8.7243   34.8159   18.3016 H   0  0  0  0  0  0  0  0  0  0  0  0
  1  2  1  0
  2  3  1  0
  3  4  1  0
  4  5  2  0
  4  6  1  0
  6  7  1  0
  6  8  1  0
  8  9  1  0
  9 10  2  0
 10 11  1  0
 11 12  2  0
 11 13  1  0
 10 14  1  0
 14 15  1  0
 15 16  1  0
 16 17  2  0
 17 18  1  0
 18 19  2  0
 19 20  1  0
 20 21  2  0
 21 22  1  0
 22 23  2  0
 23 24  1  0
 24 25  2  0
 14 26  1  0
 26 27  2  0
 27 28  1  0
 28 29  2  0
 29 30  1  0
 29 31  1  0
 31 32  2  0
 32  9  1  0
 25 16  1  0
 32 26  1  0
 25 20  1  0
  1 33  1  0
  1 34  1  0
  1 35  1  0
  2 36  1  0
  2 37  1  0
  7 38  1  0
  7 39  1  0
  7 40  1  0
  8 41  1  0
  8 42  1  0
 15 43  1  0
 15 44  1  0
 17 45  1  0
 18 46  1  0
 19 47  1  0
 21 48  1  0
 22 49  1  0
 23 50  1  0
 24 51  1  0
 27 52  1  0
 28 53  1  0
 31 54  1  0
M  CHG  1  13  -1
M  END
>  <meeko>  (369) 
{"free_energy": -5.58, "intermolecular_energy": -7.97, "internal_energy": -1.73, "cluster_size": 326, "cluster_id": 11, "rank_in_cluster": 210}

$$$$

     RDKit          3D

 54 57  0  0  0  0  0  0  0  0999 V2000
    9.9870   36.2000   12.3280 C   0  0  0  0  0  0  0  0  0  0  0  0
    8.5510   35.8000   12.6790 C   0  0  0  0  0  0  0  0  0  0  0  0
    8.4080   35.7630   14.0890 O   0  0  0  0  0  0  0  0  0  0  0  0
    8.6210   34.6110   14.7610 C   0  0  0  0  0  0  0  0  0  0  0  0
    8.1220   33.5330   14.4320 O   0  0  0  0  0  0  0  0  0  0  0  0
    9.4750   34.8270   15.8500 N   0  0  0  0  0  0  0  0  0  0  0  0
    8.9780   35.2780   17.1540 C   0  0  0  0  0  0  0  0  0  0  0  0
   10.9270   34.6390   15.7280 C   0  0  0  0  0  0  0  0  0  0  0  0
   11.7030   35.8350   16.2280 C   0  0  0  0  0  0  0  0  0  0  0  0
   11.3340   37.1690   16.2290 C   0  0  0  0  0  0  0  0  0  0  0  0
   10.0590   37.8060   15.7730 C   0  0  0  0  0  0  0  0  0  0  0  0
    9.9420   38.1210   14.5700 O   0  0  0  0  0  0  0  0  0  0  0  0
    9.1370   38.0360   16.5850 O   0  0  0  0  0  1  0  0  0  0  0  0
   12.4050   37.9360   16.7350 N   0  0  0  0  0  0  0  0  0  0  0  0
   12.4720   39.3870   16.9320 C   0  0  0  0  0  0  0  0  0  0  0  0
   11.3210   39.9800   17.7570 C   0  0  0  0  0  0  0  0  0  0  0  0
   10.6210   41.1260   17.3060 C   0  0  0  0  0  0  0  0  0  0  0  0
    9.5670   41.6730   18.0570 C   0  0  0  0  0  0  0  0  0  0  0  0
    9.1940   41.0830   19.2760 C   0  0  0  0  0  0  0  0  0  0  0  0
    9.8750   39.9450   19.7460 C   0  0  0  0  0  0  0  0  0  0  0  0
    9.4870   39.3660   20.9720 C   0  0  0  0  0  0  0  0  0  0  0  0
   10.1540   38.2280   21.4620 C   0  0  0  0  0  0  0  0  0  0  0  0
   11.2110   37.6660   20.7240 C   0  0  0  0  0  0  0  0  0  0  0  0
   11.6030   38.2390   19.4990 C   0  0  0  0  0  0  0  0  0  0  0  0
   10.9420   39.3850   18.9910 C   0  0  0  0  0  0  0  0  0  0  0  0
   13.4600   37.0920   17.0580 C   0  0  0  0  0  0  0  0  0  0  0  0
   14.7450   37.3510   17.5770 C   0  0  0  0  0  0  0  0  0  0  0  0
   15.6290   36.2880   17.8220 C   0  0  0  0  0  0  0  0  0  0  0  0
   15.2250   34.9690   17.5490 C   0  0  0  0  0  0  0  0  0  0  0  0
   16.0720   33.9390   17.7860 F   0  0  0  0  0  0  0  0  0  0  0  0
   13.9420   34.7190   17.0260 C   0  0  0  0  0  0  0  0  0  0  0  0
   13.0310   35.7700   16.7630 C   0  0  0  0  0  0  0  0  0  0  0  0
   10.5598   36.3596   13.2534 H   0  0  0  0  0  0  0  0  0  0  0  0
   10.4573   35.3987   11.7392 H   0  0  0  0  0  0  0  0  0  0  0  0
    9.9753   37.1291   11.7392 H   0  0  0  0  0  0  0  0  0  0  0  0
    7.8507   36.5362   12.2575 H   0  0  0  0  0  0  0  0  0  0  0  0
    8.3312   34.8072   12.2594 H   0  0  0  0  0  0  0  0  0  0  0  0
    9.5366   34.7711   17.9546 H   0  0  0  0  0  0  0  0  0  0  0  0
    9.1159   36.3657   17.2427 H   0  0  0  0  0  0  0  0  0  0  0  0
    7.9087   35.0355   17.2427 H   0  0  0  0  0  0  0  0  0  0  0  0
   11.2202   33.7562   16.3152 H   0  0  0  0  0  0  0  0  0  0  0  0
   11.1613   34.5073   14.6613 H   0  0  0  0  0  0  0  0  0  0  0  0
   13.4163   39.6190   17.4463 H   0  0  0  0  0  0  0  0  0  0  0  0
   12.3996   39.8384   15.9315 H   0  0  0  0  0  0  0  0  0  0  0  0
   10.9071   41.5949   16.3530 H   0  0  0  0  0  0  0  0  0  0  0  0
    9.0342   42.5628   17.6906 H   0  0  0  0  0  0  0  0  0  0  0  0
    8.3686   41.5111   19.8638 H   0  0  0  0  0  0  0  0  0  0  0  0
    8.6593   39.8059   21.5477 H   0  0  0  0  0  0  0  0  0  0  0  0
    9.8496   37.7794   22.4192 H   0  0  0  0  0  0  0  0  0  0  0  0
   11.7332   36.7759   21.1050 H   0  0  0  0  0  0  0  0  0  0  0  0
   12.4316   37.7921   18.9300 H   0  0  0  0  0  0  0  0  0  0  0  0
   15.0547   38.3848   17.7898 H   0  0  0  0  0  0  0  0  0  0  0  0
   16.6329   36.4861   18.2256 H   0  0  0  0  0  0  0  0  0  0  0  0
   13.6403   33.6821   16.8167 H   0  0  0  0  0  0  0  0  0  0  0  0
  1  2  1  0
  2  3  1  0
  3  4  1  0
  4  5  2  0
  4  6  1  0
  6  7  1  0
  6  8  1  0
  8  9  1  0
  9 10  2  0
 10 11  1  0
 11 12  2  0
 11 13  1  0
 10 14  1  0
 14 15  1  0
 15 16  1  0
 16 17  2  0
 17 18  1  0
 18 19  2  0
 19 20  1  0
 20 21  2  0
 21 22  1  0
 22 23  2  0
 23 24  1  0
 24 25  2  0
 14 26  1  0
 26 27  2  0
 27 28  1  0
 28 29  2  0
 29 30  1  0
 29 31  1  0
 31 32  2  0
 32  9  1  0
 25 16  1  0
 32 26  1  0
 25 20  1  0
  1 33  1  0
  1 34  1  0
  1 35  1  0
  2 36  1  0
  2 37  1  0
  7 38  1  0
  7 39  1  0
  7 40  1  0
  8 41  1  0
  8 42  1  0
 15 43  1  0
 15 44  1  0
 17 45  1  0
 18 46  1  0
 19 47  1  0
 21 48  1  0
 22 49  1  0
 23 50  1  0
 24 51  1  0
 27 52  1  0
 28 53  1  0
 31 54  1  0
M  CHG  1  13  -1
M  END
>  <meeko>  (370) 
{"free_energy": -4.27, "intermolecular_energy": -6.66, "internal_energy": -2.04, "cluster_size": 9, "cluster_id": 189, "rank_in_cluster": 5}

$$$$

     RDKit          3D

 54 57  0  0  0  0  0  0  0  0999 V2000
    9.5310   38.4070   14.4090 C   0  0  0  0  0  0  0  0  0  0  0  0
   10.8650   38.2140   13.6830 C   0  0  0  0  0  0  0  0  0  0  0  0
   11.6130   39.4180   13.7510 O   0  0  0  0  0  0  0  0  0  0  0  0
   12.8420   39.4830   13.1960 C   0  0  0  0  0  0  0  0  0  0  0  0
   13.5570   38.4960   13.0170 O   0  0  0  0  0  0  0  0  0  0  0  0
   13.1600   40.8050   12.8610 N   0  0  0  0  0  0  0  0  0  0  0  0
   13.9140   41.6790   13.7660 C   0  0  0  0  0  0  0  0  0  0  0  0
   12.7250   41.3940   11.5880 C   0  0  0  0  0  0  0  0  0  0  0  0
   11.2430   41.2210   11.3540 C   0  0  0  0  0  0  0  0  0  0  0  0
   10.5910   40.2640   10.5970 C   0  0  0  0  0  0  0  0  0  0  0  0
   11.1530   39.1120    9.8260 C   0  0  0  0  0  0  0  0  0  0  0  0
   12.0820   38.4460   10.3330 O   0  0  0  0  0  0  0  0  0  0  0  0
   10.7160   38.8340    8.6880 O   0  0  0  0  0  1  0  0  0  0  0  0
    9.2060   40.5350   10.6170 N   0  0  0  0  0  0  0  0  0  0  0  0
    8.1230   39.7890    9.9700 C   0  0  0  0  0  0  0  0  0  0  0  0
    8.2850   38.2630    9.9960 C   0  0  0  0  0  0  0  0  0  0  0  0
    8.7950   37.6070   11.1440 C   0  0  0  0  0  0  0  0  0  0  0  0
    8.9450   36.2100   11.1720 C   0  0  0  0  0  0  0  0  0  0  0  0
    8.5890   35.4430   10.0510 C   0  0  0  0  0  0  0  0  0  0  0  0
    8.0820   36.0710    8.8980 C   0  0  0  0  0  0  0  0  0  0  0  0
    7.7300   35.2850    7.7820 C   0  0  0  0  0  0  0  0  0  0  0  0
    7.2210   35.8920    6.6190 C   0  0  0  0  0  0  0  0  0  0  0  0
    7.0630   37.2880    6.5720 C   0  0  0  0  0  0  0  0  0  0  0  0
    7.4130   38.0790    7.6830 C   0  0  0  0  0  0  0  0  0  0  0  0
    7.9260   37.4840    8.8620 C   0  0  0  0  0  0  0  0  0  0  0  0
    8.9720   41.6660   11.3880 C   0  0  0  0  0  0  0  0  0  0  0  0
    7.7840   42.3540   11.7100 C   0  0  0  0  0  0  0  0  0  0  0  0
    7.8340   43.4910   12.5350 C   0  0  0  0  0  0  0  0  0  0  0  0
    9.0700   43.9340   13.0350 C   0  0  0  0  0  0  0  0  0  0  0  0
    9.1250   45.0260   13.8340 F   0  0  0  0  0  0  0  0  0  0  0  0
   10.2530   43.2440   12.7060 C   0  0  0  0  0  0  0  0  0  0  0  0
   10.2350   42.1000   11.8720 C   0  0  0  0  0  0  0  0  0  0  0  0
    9.6982   38.3828   15.4959 H   0  0  0  0  0  0  0  0  0  0  0  0
    9.0967   39.3773   14.1263 H   0  0  0  0  0  0  0  0  0  0  0  0
    8.8395   37.5995   14.1263 H   0  0  0  0  0  0  0  0  0  0  0  0
   11.4308   37.4020   14.1631 H   0  0  0  0  0  0  0  0  0  0  0  0
   10.6782   37.9545   12.6305 H   0  0  0  0  0  0  0  0  0  0  0  0
   13.6845   41.4130   14.8084 H   0  0  0  0  0  0  0  0  0  0  0  0
   14.9915   41.5531   13.5842 H   0  0  0  0  0  0  0  0  0  0  0  0
   13.6314   42.7264   13.5842 H   0  0  0  0  0  0  0  0  0  0  0  0
   12.9587   42.4688   11.5972 H   0  0  0  0  0  0  0  0  0  0  0  0
   13.2569   40.8745   10.7773 H   0  0  0  0  0  0  0  0  0  0  0  0
    7.1817   40.0416   10.4801 H   0  0  0  0  0  0  0  0  0  0  0  0
    8.1359   40.0829    8.9101 H   0  0  0  0  0  0  0  0  0  0  0  0
    9.0776   38.2001   12.0262 H   0  0  0  0  0  0  0  0  0  0  0  0
    9.3413   35.7173   12.0721 H   0  0  0  0  0  0  0  0  0  0  0  0
    8.7066   34.3495   10.0740 H   0  0  0  0  0  0  0  0  0  0  0  0
    7.8537   34.1927    7.8205 H   0  0  0  0  0  0  0  0  0  0  0  0
    6.9477   35.2761    5.7495 H   0  0  0  0  0  0  0  0  0  0  0  0
    6.6645   37.7642    5.6640 H   0  0  0  0  0  0  0  0  0  0  0  0
    7.2868   39.1707    7.6351 H   0  0  0  0  0  0  0  0  0  0  0  0
    6.8194   42.0014   11.3161 H   0  0  0  0  0  0  0  0  0  0  0  0
    6.9098   44.0313   12.7879 H   0  0  0  0  0  0  0  0  0  0  0  0
   11.2130   43.6022   13.1062 H   0  0  0  0  0  0  0  0  0  0  0  0
  1  2  1  0
  2  3  1  0
  3  4  1  0
  4  5  2  0
  4  6  1  0
  6  7  1  0
  6  8  1  0
  8  9  1  0
  9 10  2  0
 10 11  1  0
 11 12  2  0
 11 13  1  0
 10 14  1  0
 14 15  1  0
 15 16  1  0
 16 17  2  0
 17 18  1  0
 18 19  2  0
 19 20  1  0
 20 21  2  0
 21 22  1  0
 22 23  2  0
 23 24  1  0
 24 25  2  0
 14 26  1  0
 26 27  2  0
 27 28  1  0
 28 29  2  0
 29 30  1  0
 29 31  1  0
 31 32  2  0
 32  9  1  0
 25 16  1  0
 32 26  1  0
 25 20  1  0
  1 33  1  0
  1 34  1  0
  1 35  1  0
  2 36  1  0
  2 37  1  0
  7 38  1  0
  7 39  1  0
  7 40  1  0
  8 41  1  0
  8 42  1  0
 15 43  1  0
 15 44  1  0
 17 45  1  0
 18 46  1  0
 19 47  1  0
 21 48  1  0
 22 49  1  0
 23 50  1  0
 24 51  1  0
 27 52  1  0
 28 53  1  0
 31 54  1  0
M  CHG  1  13  -1
M  END
>  <meeko>  (371) 
{"free_energy": -7.13, "intermolecular_energy": -9.52, "internal_energy": -2.25, "cluster_size": 417, "cluster_id": 2, "rank_in_cluster": 115}

$$$$

     RDKit          3D

 54 57  0  0  0  0  0  0  0  0999 V2000
   18.2230   40.4100    6.2900 C   0  0  0  0  0  0  0  0  0  0  0  0
   18.6700   40.4080    4.8260 C   0  0  0  0  0  0  0  0  0  0  0  0
   17.9270   41.3820    4.1110 O   0  0  0  0  0  0  0  0  0  0  0  0
   16.6850   41.0930    3.6650 C   0  0  0  0  0  0  0  0  0  0  0  0
   16.4610   40.2930    2.7550 O   0  0  0  0  0  0  0  0  0  0  0  0
   15.7250   41.8170    4.3830 N   0  0  0  0  0  0  0  0  0  0  0  0
   15.8210   43.2690    4.5690 C   0  0  0  0  0  0  0  0  0  0  0  0
   14.5800   41.1470    5.0140 C   0  0  0  0  0  0  0  0  0  0  0  0
   13.9810   41.9690    6.1310 C   0  0  0  0  0  0  0  0  0  0  0  0
   14.0550   41.7580    7.4970 C   0  0  0  0  0  0  0  0  0  0  0  0
   14.7700   40.6890    8.2600 C   0  0  0  0  0  0  0  0  0  0  0  0
   15.5630   41.0250    9.1660 O   0  0  0  0  0  0  0  0  0  0  0  0
   14.5920   39.4820    7.9840 O   0  0  0  0  0  1  0  0  0  0  0  0
   13.2880   42.7470    8.1510 N   0  0  0  0  0  0  0  0  0  0  0  0
   13.0790   42.9330    9.5890 C   0  0  0  0  0  0  0  0  0  0  0  0
   11.8530   42.2080   10.1620 C   0  0  0  0  0  0  0  0  0  0  0  0
   11.2230   41.1650    9.4370 C   0  0  0  0  0  0  0  0  0  0  0  0
   10.1010   40.4980    9.9580 C   0  0  0  0  0  0  0  0  0  0  0  0
    9.5860   40.8630   11.2120 C   0  0  0  0  0  0  0  0  0  0  0  0
   10.1930   41.8970   11.9500 C   0  0  0  0  0  0  0  0  0  0  0  0
    9.6620   42.2510   13.2070 C   0  0  0  0  0  0  0  0  0  0  0  0
   10.2520   43.2810   13.9620 C   0  0  0  0  0  0  0  0  0  0  0  0
   11.3760   43.9590   13.4590 C   0  0  0  0  0  0  0  0  0  0  0  0
   11.9110   43.6110   12.2030 C   0  0  0  0  0  0  0  0  0  0  0  0
   11.3290   42.5760   11.4310 C   0  0  0  0  0  0  0  0  0  0  0  0
   12.7230   43.5900    7.2020 C   0  0  0  0  0  0  0  0  0  0  0  0
   11.8740   44.7090    7.3260 C   0  0  0  0  0  0  0  0  0  0  0  0
   11.4510   45.3980    6.1770 C   0  0  0  0  0  0  0  0  0  0  0  0
   11.8780   44.9670    4.9100 C   0  0  0  0  0  0  0  0  0  0  0  0
   11.4770   45.6290    3.7990 F   0  0  0  0  0  0  0  0  0  0  0  0
   12.7230   43.8460    4.7930 C   0  0  0  0  0  0  0  0  0  0  0  0
   13.1610   43.1280    5.9320 C   0  0  0  0  0  0  0  0  0  0  0  0
   19.1078   40.4060    6.9435 H   0  0  0  0  0  0  0  0  0  0  0  0
   17.6240   41.3108    6.4893 H   0  0  0  0  0  0  0  0  0  0  0  0
   17.6160   39.5146    6.4893 H   0  0  0  0  0  0  0  0  0  0  0  0
   19.7421   40.6474    4.7682 H   0  0  0  0  0  0  0  0  0  0  0  0
   18.4958   39.4144    4.3874 H   0  0  0  0  0  0  0  0  0  0  0  0
   15.8363   43.5007    5.6442 H   0  0  0  0  0  0  0  0  0  0  0  0
   16.7455   43.6383    4.1011 H   0  0  0  0  0  0  0  0  0  0  0  0
   14.9531   43.7568    4.1011 H   0  0  0  0  0  0  0  0  0  0  0  0
   13.8079   40.9712    4.2505 H   0  0  0  0  0  0  0  0  0  0  0  0
   14.9390   40.2014    5.4463 H   0  0  0  0  0  0  0  0  0  0  0  0
   13.9716   42.5632   10.1149 H   0  0  0  0  0  0  0  0  0  0  0  0
   12.9002   44.0080    9.7388 H   0  0  0  0  0  0  0  0  0  0  0  0
   11.6181   40.8737    8.4526 H   0  0  0  0  0  0  0  0  0  0  0  0
    9.6261   39.6895    9.3829 H   0  0  0  0  0  0  0  0  0  0  0  0
    8.7074   40.3406   11.6184 H   0  0  0  0  0  0  0  0  0  0  0  0
    8.7824   41.7195   13.5992 H   0  0  0  0  0  0  0  0  0  0  0  0
    9.8353   43.5549   14.9425 H   0  0  0  0  0  0  0  0  0  0  0  0
   11.8395   44.7641   14.0481 H   0  0  0  0  0  0  0  0  0  0  0  0
   12.7899   44.1488   11.8179 H   0  0  0  0  0  0  0  0  0  0  0  0
   11.5434   45.0420    8.3209 H   0  0  0  0  0  0  0  0  0  0  0  0
   10.7883   46.2711    6.2691 H   0  0  0  0  0  0  0  0  0  0  0  0
   13.0499   43.5211    3.7942 H   0  0  0  0  0  0  0  0  0  0  0  0
  1  2  1  0
  2  3  1  0
  3  4  1  0
  4  5  2  0
  4  6  1  0
  6  7  1  0
  6  8  1  0
  8  9  1  0
  9 10  2  0
 10 11  1  0
 11 12  2  0
 11 13  1  0
 10 14  1  0
 14 15  1  0
 15 16  1  0
 16 17  2  0
 17 18  1  0
 18 19  2  0
 19 20  1  0
 20 21  2  0
 21 22  1  0
 22 23  2  0
 23 24  1  0
 24 25  2  0
 14 26  1  0
 26 27  2  0
 27 28  1  0
 28 29  2  0
 29 30  1  0
 29 31  1  0
 31 32  2  0
 32  9  1  0
 25 16  1  0
 32 26  1  0
 25 20  1  0
  1 33  1  0
  1 34  1  0
  1 35  1  0
  2 36  1  0
  2 37  1  0
  7 38  1  0
  7 39  1  0
  7 40  1  0
  8 41  1  0
  8 42  1  0
 15 43  1  0
 15 44  1  0
 17 45  1  0
 18 46  1  0
 19 47  1  0
 21 48  1  0
 22 49  1  0
 23 50  1  0
 24 51  1  0
 27 52  1  0
 28 53  1  0
 31 54  1  0
M  CHG  1  13  -1
M  END
>  <meeko>  (372) 
{"free_energy": -4.43, "intermolecular_energy": -6.81, "internal_energy": -1.66, "cluster_size": 6, "cluster_id": 152, "rank_in_cluster": 4}

$$$$

     RDKit          3D

 54 57  0  0  0  0  0  0  0  0999 V2000
    9.6520   41.0720   10.8200 C   0  0  0  0  0  0  0  0  0  0  0  0
    8.6940   40.0170   10.2610 C   0  0  0  0  0  0  0  0  0  0  0  0
    9.3940   39.1880    9.3480 O   0  0  0  0  0  0  0  0  0  0  0  0
    8.8860   37.9870    8.9980 C   0  0  0  0  0  0  0  0  0  0  0  0
    7.8280   37.8520    8.3800 O   0  0  0  0  0  0  0  0  0  0  0  0
    9.7270   36.9530    9.4290 N   0  0  0  0  0  0  0  0  0  0  0  0
    9.2790   35.5570    9.4920 C   0  0  0  0  0  0  0  0  0  0  0  0
   11.1020   37.2230    9.8710 C   0  0  0  0  0  0  0  0  0  0  0  0
   11.1710   37.5910   11.3340 C   0  0  0  0  0  0  0  0  0  0  0  0
   10.2820   37.2810   12.3490 C   0  0  0  0  0  0  0  0  0  0  0  0
    9.0240   36.4720   12.3010 C   0  0  0  0  0  0  0  0  0  0  0  0
    8.0900   36.8570   11.5650 O   0  0  0  0  0  0  0  0  0  0  0  0
    8.9040   35.4410   12.9980 O   0  0  0  0  0  1  0  0  0  0  0  0
   10.7240   37.8910   13.5420 N   0  0  0  0  0  0  0  0  0  0  0  0
   10.1130   37.8360   14.8730 C   0  0  0  0  0  0  0  0  0  0  0  0
    9.9780   36.4260   15.4630 C   0  0  0  0  0  0  0  0  0  0  0  0
   11.0050   35.4650   15.2880 C   0  0  0  0  0  0  0  0  0  0  0  0
   10.8870   34.1720   15.8270 C   0  0  0  0  0  0  0  0  0  0  0  0
    9.7370   33.8150   16.5500 C   0  0  0  0  0  0  0  0  0  0  0  0
    8.7020   34.7520   16.7360 C   0  0  0  0  0  0  0  0  0  0  0  0
    7.5550   34.3760   17.4640 C   0  0  0  0  0  0  0  0  0  0  0  0
    6.5090   35.2950   17.6630 C   0  0  0  0  0  0  0  0  0  0  0  0
    6.6090   36.5930   17.1320 C   0  0  0  0  0  0  0  0  0  0  0  0
    7.7520   36.9740   16.4040 C   0  0  0  0  0  0  0  0  0  0  0  0
    8.8150   36.0620   16.1950 C   0  0  0  0  0  0  0  0  0  0  0  0
   11.8960   38.5920   13.2910 C   0  0  0  0  0  0  0  0  0  0  0  0
   12.7210   39.3730   14.1260 C   0  0  0  0  0  0  0  0  0  0  0  0
   13.8780   39.9750   13.6030 C   0  0  0  0  0  0  0  0  0  0  0  0
   14.2070   39.7920   12.2490 C   0  0  0  0  0  0  0  0  0  0  0  0
   15.3230   40.3660   11.7400 F   0  0  0  0  0  0  0  0  0  0  0  0
   13.3760   39.0130   11.4200 C   0  0  0  0  0  0  0  0  0  0  0  0
   12.2010   38.4000   11.9170 C   0  0  0  0  0  0  0  0  0  0  0  0
    9.6269   41.0443   11.9194 H   0  0  0  0  0  0  0  0  0  0  0  0
   10.6737   40.8611   10.4712 H   0  0  0  0  0  0  0  0  0  0  0  0
    9.3439   42.0687   10.4712 H   0  0  0  0  0  0  0  0  0  0  0  0
    8.2992   39.4050   11.0854 H   0  0  0  0  0  0  0  0  0  0  0  0
    7.8591   40.5129    9.7443 H   0  0  0  0  0  0  0  0  0  0  0  0
    9.1807   35.2506   10.5439 H   0  0  0  0  0  0  0  0  0  0  0  0
    8.3051   35.4614    8.9897 H   0  0  0  0  0  0  0  0  0  0  0  0
   10.0154   34.9125    8.9897 H   0  0  0  0  0  0  0  0  0  0  0  0
   11.7109   36.3223    9.7035 H   0  0  0  0  0  0  0  0  0  0  0  0
   11.4809   38.0771    9.2905 H   0  0  0  0  0  0  0  0  0  0  0  0
   10.7308   38.4355   15.5578 H   0  0  0  0  0  0  0  0  0  0  0  0
    9.0895   38.2226   14.7593 H   0  0  0  0  0  0  0  0  0  0  0  0
   11.9085   35.7351   14.7216 H   0  0  0  0  0  0  0  0  0  0  0  0
   11.6952   33.4400   15.6825 H   0  0  0  0  0  0  0  0  0  0  0  0
    9.6446   32.8030   16.9712 H   0  0  0  0  0  0  0  0  0  0  0  0
    7.4777   33.3599   17.8781 H   0  0  0  0  0  0  0  0  0  0  0  0
    5.6155   34.9991   18.2323 H   0  0  0  0  0  0  0  0  0  0  0  0
    5.7917   37.3129   17.2859 H   0  0  0  0  0  0  0  0  0  0  0  0
    7.8202   37.9919   15.9927 H   0  0  0  0  0  0  0  0  0  0  0  0
   12.4593   39.5109   15.1855 H   0  0  0  0  0  0  0  0  0  0  0  0
   14.5233   40.5868   14.2505 H   0  0  0  0  0  0  0  0  0  0  0  0
   13.6465   38.8781   10.3623 H   0  0  0  0  0  0  0  0  0  0  0  0
  1  2  1  0
  2  3  1  0
  3  4  1  0
  4  5  2  0
  4  6  1  0
  6  7  1  0
  6  8  1  0
  8  9  1  0
  9 10  2  0
 10 11  1  0
 11 12  2  0
 11 13  1  0
 10 14  1  0
 14 15  1  0
 15 16  1  0
 16 17  2  0
 17 18  1  0
 18 19  2  0
 19 20  1  0
 20 21  2  0
 21 22  1  0
 22 23  2  0
 23 24  1  0
 24 25  2  0
 14 26  1  0
 26 27  2  0
 27 28  1  0
 28 29  2  0
 29 30  1  0
 29 31  1  0
 31 32  2  0
 32  9  1  0
 25 16  1  0
 32 26  1  0
 25 20  1  0
  1 33  1  0
  1 34  1  0
  1 35  1  0
  2 36  1  0
  2 37  1  0
  7 38  1  0
  7 39  1  0
  7 40  1  0
  8 41  1  0
  8 42  1  0
 15 43  1  0
 15 44  1  0
 17 45  1  0
 18 46  1  0
 19 47  1  0
 21 48  1  0
 22 49  1  0
 23 50  1  0
 24 51  1  0
 27 52  1  0
 28 53  1  0
 31 54  1  0
M  CHG  1  13  -1
M  END
>  <meeko>  (373) 
{"free_energy": -6.13, "intermolecular_energy": -8.52, "internal_energy": -1.83, "cluster_size": 109, "cluster_id": 6, "rank_in_cluster": 63}

$$$$

     RDKit          3D

 54 57  0  0  0  0  0  0  0  0999 V2000
   12.6500   36.2150   17.4090 C   0  0  0  0  0  0  0  0  0  0  0  0
   12.4510   35.2750   16.2170 C   0  0  0  0  0  0  0  0  0  0  0  0
   11.1140   34.8010   16.2150 O   0  0  0  0  0  0  0  0  0  0  0  0
   10.4110   34.7650   15.0630 C   0  0  0  0  0  0  0  0  0  0  0  0
   10.9020   34.4480   13.9790 O   0  0  0  0  0  0  0  0  0  0  0  0
    9.0770   35.1280   15.2910 N   0  0  0  0  0  0  0  0  0  0  0  0
    8.3380   34.6820   16.4780 C   0  0  0  0  0  0  0  0  0  0  0  0
    8.3370   35.9550   14.3280 C   0  0  0  0  0  0  0  0  0  0  0  0
    9.2570   36.7760   13.4540 C   0  0  0  0  0  0  0  0  0  0  0  0
   10.2100   37.7050   13.8310 C   0  0  0  0  0  0  0  0  0  0  0  0
   10.6300   38.1380   15.2000 C   0  0  0  0  0  0  0  0  0  0  0  0
    9.7480   38.3510   16.0600 O   0  0  0  0  0  0  0  0  0  0  0  0
   11.8390   38.3030   15.4730 O   0  0  0  0  0  1  0  0  0  0  0  0
   10.7810   38.2670   12.6700 N   0  0  0  0  0  0  0  0  0  0  0  0
   11.8340   39.2820   12.5720 C   0  0  0  0  0  0  0  0  0  0  0  0
   12.7600   39.1350   11.3570 C   0  0  0  0  0  0  0  0  0  0  0  0
   13.6820   38.0620   11.2720 C   0  0  0  0  0  0  0  0  0  0  0  0
   14.5310   37.9240   10.1610 C   0  0  0  0  0  0  0  0  0  0  0  0
   14.4770   38.8590    9.1150 C   0  0  0  0  0  0  0  0  0  0  0  0
   13.5710   39.9350    9.1770 C   0  0  0  0  0  0  0  0  0  0  0  0
   13.5310   40.8650    8.1170 C   0  0  0  0  0  0  0  0  0  0  0  0
   12.6340   41.9480    8.1580 C   0  0  0  0  0  0  0  0  0  0  0  0
   11.7750   42.1020    9.2610 C   0  0  0  0  0  0  0  0  0  0  0  0
   11.8110   41.1780   10.3220 C   0  0  0  0  0  0  0  0  0  0  0  0
   12.7080   40.0810   10.2970 C   0  0  0  0  0  0  0  0  0  0  0  0
   10.1910   37.6980   11.5480 C   0  0  0  0  0  0  0  0  0  0  0  0
   10.3890   37.9170   10.1690 C   0  0  0  0  0  0  0  0  0  0  0  0
    9.6480   37.1810    9.2300 C   0  0  0  0  0  0  0  0  0  0  0  0
    8.7140   36.2280    9.6710 C   0  0  0  0  0  0  0  0  0  0  0  0
    7.9990   35.5130    8.7700 F   0  0  0  0  0  0  0  0  0  0  0  0
    8.5200   36.0170   11.0500 C   0  0  0  0  0  0  0  0  0  0  0  0
    9.2460   36.7480   12.0210 C   0  0  0  0  0  0  0  0  0  0  0  0
   12.5304   35.6502   18.3453 H   0  0  0  0  0  0  0  0  0  0  0  0
   13.6599   36.6491   17.3690 H   0  0  0  0  0  0  0  0  0  0  0  0
   11.9026   37.0211   17.3690 H   0  0  0  0  0  0  0  0  0  0  0  0
   12.6498   35.8193   15.2820 H   0  0  0  0  0  0  0  0  0  0  0  0
   13.1444   34.4248   16.2969 H   0  0  0  0  0  0  0  0  0  0  0  0
    8.8715   35.0040   17.3845 H   0  0  0  0  0  0  0  0  0  0  0  0
    7.3302   35.1228   16.4696 H   0  0  0  0  0  0  0  0  0  0  0  0
    8.2584   33.5849   16.4696 H   0  0  0  0  0  0  0  0  0  0  0  0
    7.7332   35.2966   13.6862 H   0  0  0  0  0  0  0  0  0  0  0  0
    7.7031   36.6505   14.8976 H   0  0  0  0  0  0  0  0  0  0  0  0
   11.3529   40.2697   12.5178 H   0  0  0  0  0  0  0  0  0  0  0  0
   12.4687   39.1559   13.4615 H   0  0  0  0  0  0  0  0  0  0  0  0
   13.7337   37.3262   12.0881 H   0  0  0  0  0  0  0  0  0  0  0  0
   15.2383   37.0830   10.1107 H   0  0  0  0  0  0  0  0  0  0  0  0
   15.1431   38.7508    8.2463 H   0  0  0  0  0  0  0  0  0  0  0  0
   14.2036   40.7429    7.2552 H   0  0  0  0  0  0  0  0  0  0  0  0
   12.6046   42.6719    7.3303 H   0  0  0  0  0  0  0  0  0  0  0  0
   11.0724   42.9478    9.2945 H   0  0  0  0  0  0  0  0  0  0  0  0
   11.1354   41.3087   11.1802 H   0  0  0  0  0  0  0  0  0  0  0  0
   11.1226   38.6630    9.8294 H   0  0  0  0  0  0  0  0  0  0  0  0
    9.7981   37.3498    8.1535 H   0  0  0  0  0  0  0  0  0  0  0  0
    7.7869   35.2664   11.3804 H   0  0  0  0  0  0  0  0  0  0  0  0
  1  2  1  0
  2  3  1  0
  3  4  1  0
  4  5  2  0
  4  6  1  0
  6  7  1  0
  6  8  1  0
  8  9  1  0
  9 10  2  0
 10 11  1  0
 11 12  2  0
 11 13  1  0
 10 14  1  0
 14 15  1  0
 15 16  1  0
 16 17  2  0
 17 18  1  0
 18 19  2  0
 19 20  1  0
 20 21  2  0
 21 22  1  0
 22 23  2  0
 23 24  1  0
 24 25  2  0
 14 26  1  0
 26 27  2  0
 27 28  1  0
 28 29  2  0
 29 30  1  0
 29 31  1  0
 31 32  2  0
 32  9  1  0
 25 16  1  0
 32 26  1  0
 25 20  1  0
  1 33  1  0
  1 34  1  0
  1 35  1  0
  2 36  1  0
  2 37  1  0
  7 38  1  0
  7 39  1  0
  7 40  1  0
  8 41  1  0
  8 42  1  0
 15 43  1  0
 15 44  1  0
 17 45  1  0
 18 46  1  0
 19 47  1  0
 21 48  1  0
 22 49  1  0
 23 50  1  0
 24 51  1  0
 27 52  1  0
 28 53  1  0
 31 54  1  0
M  CHG  1  13  -1
M  END
>  <meeko>  (374) 
{"free_energy": -5.61, "intermolecular_energy": -7.99, "internal_energy": -2.04, "cluster_size": 251, "cluster_id": 26, "rank_in_cluster": 142}

$$$$

     RDKit          3D

 54 57  0  0  0  0  0  0  0  0999 V2000
   11.6490   34.4590   15.8480 C   0  0  0  0  0  0  0  0  0  0  0  0
   12.8590   35.0980   16.5340 C   0  0  0  0  0  0  0  0  0  0  0  0
   12.9440   36.4620   16.1550 O   0  0  0  0  0  0  0  0  0  0  0  0
   12.5850   37.4300   17.0250 C   0  0  0  0  0  0  0  0  0  0  0  0
   12.0450   37.2010   18.1080 O   0  0  0  0  0  0  0  0  0  0  0  0
   12.9200   38.6930   16.5200 N   0  0  0  0  0  0  0  0  0  0  0  0
   14.0920   39.4370   16.9940 C   0  0  0  0  0  0  0  0  0  0  0  0
   12.0890   39.3510   15.5030 C   0  0  0  0  0  0  0  0  0  0  0  0
   11.2810   38.3620   14.6970 C   0  0  0  0  0  0  0  0  0  0  0  0
   11.4040   38.0280   13.3600 C   0  0  0  0  0  0  0  0  0  0  0  0
   12.3850   38.5150   12.3410 C   0  0  0  0  0  0  0  0  0  0  0  0
   12.9570   39.6100   12.5330 O   0  0  0  0  0  0  0  0  0  0  0  0
   12.6150   37.8490   11.3080 O   0  0  0  0  0  1  0  0  0  0  0  0
   10.3900   37.1040   13.0270 N   0  0  0  0  0  0  0  0  0  0  0  0
   10.1310   36.4630   11.7350 C   0  0  0  0  0  0  0  0  0  0  0  0
    9.3980   37.3420   10.7140 C   0  0  0  0  0  0  0  0  0  0  0  0
    9.3640   38.7520   10.8610 C   0  0  0  0  0  0  0  0  0  0  0  0
    8.6940   39.5610    9.9280 C   0  0  0  0  0  0  0  0  0  0  0  0
    8.0420   38.9760    8.8300 C   0  0  0  0  0  0  0  0  0  0  0  0
    8.0600   37.5780    8.6630 C   0  0  0  0  0  0  0  0  0  0  0  0
    7.4000   37.0080    7.5550 C   0  0  0  0  0  0  0  0  0  0  0  0
    7.4040   35.6140    7.3670 C   0  0  0  0  0  0  0  0  0  0  0  0
    8.0710   34.7870    8.2890 C   0  0  0  0  0  0  0  0  0  0  0  0
    8.7310   35.3500    9.3980 C   0  0  0  0  0  0  0  0  0  0  0  0
    8.7360   36.7520    9.6020 C   0  0  0  0  0  0  0  0  0  0  0  0
    9.6170   36.8480   14.1520 C   0  0  0  0  0  0  0  0  0  0  0  0
    8.4900   36.0240   14.3500 C   0  0  0  0  0  0  0  0  0  0  0  0
    7.8960   35.9430   15.6210 C   0  0  0  0  0  0  0  0  0  0  0  0
    8.4320   36.6830   16.6890 C   0  0  0  0  0  0  0  0  0  0  0  0
    7.8670   36.6060   17.9170 F   0  0  0  0  0  0  0  0  0  0  0  0
    9.5560   37.5070   16.4820 C   0  0  0  0  0  0  0  0  0  0  0  0
   10.1710   37.6150   15.2120 C   0  0  0  0  0  0  0  0  0  0  0  0
   10.9482   34.0889   16.6108 H   0  0  0  0  0  0  0  0  0  0  0  0
   11.1452   35.2087   15.2201 H   0  0  0  0  0  0  0  0  0  0  0  0
   11.9841   33.6203   15.2201 H   0  0  0  0  0  0  0  0  0  0  0  0
   12.7435   35.0260   17.6255 H   0  0  0  0  0  0  0  0  0  0  0  0
   13.7762   34.5723   16.2300 H   0  0  0  0  0  0  0  0  0  0  0  0
   14.1020   39.4434   18.0939 H   0  0  0  0  0  0  0  0  0  0  0  0
   15.0078   38.9545   16.6218 H   0  0  0  0  0  0  0  0  0  0  0  0
   14.0451   40.4710   16.6218 H   0  0  0  0  0  0  0  0  0  0  0  0
   11.3995   40.0459   16.0048 H   0  0  0  0  0  0  0  0  0  0  0  0
   12.7599   39.8812   14.8111 H   0  0  0  0  0  0  0  0  0  0  0  0
   11.0973   36.1674   11.3003 H   0  0  0  0  0  0  0  0  0  0  0  0
    9.4674   35.6102   11.9410 H   0  0  0  0  0  0  0  0  0  0  0  0
    9.8699   39.2195   11.7186 H   0  0  0  0  0  0  0  0  0  0  0  0
    8.6800   40.6533   10.0575 H   0  0  0  0  0  0  0  0  0  0  0  0
    7.5172   39.6102    8.1004 H   0  0  0  0  0  0  0  0  0  0  0  0
    6.8797   37.6563    6.8345 H   0  0  0  0  0  0  0  0  0  0  0  0
    6.8874   35.1722    6.5022 H   0  0  0  0  0  0  0  0  0  0  0  0
    8.0770   33.6967    8.1430 H   0  0  0  0  0  0  0  0  0  0  0  0
    9.2483   34.6942   10.1138 H   0  0  0  0  0  0  0  0  0  0  0  0
    8.0764   35.4455   13.5108 H   0  0  0  0  0  0  0  0  0  0  0  0
    7.0153   35.3032   15.7794 H   0  0  0  0  0  0  0  0  0  0  0  0
    9.9651   38.0798   17.3273 H   0  0  0  0  0  0  0  0  0  0  0  0
  1  2  1  0
  2  3  1  0
  3  4  1  0
  4  5  2  0
  4  6  1  0
  6  7  1  0
  6  8  1  0
  8  9  1  0
  9 10  2  0
 10 11  1  0
 11 12  2  0
 11 13  1  0
 10 14  1  0
 14 15  1  0
 15 16  1  0
 16 17  2  0
 17 18  1  0
 18 19  2  0
 19 20  1  0
 20 21  2  0
 21 22  1  0
 22 23  2  0
 23 24  1  0
 24 25  2  0
 14 26  1  0
 26 27  2  0
 27 28  1  0
 28 29  2  0
 29 30  1  0
 29 31  1  0
 31 32  2  0
 32  9  1  0
 25 16  1  0
 32 26  1  0
 25 20  1  0
  1 33  1  0
  1 34  1  0
  1 35  1  0
  2 36  1  0
  2 37  1  0
  7 38  1  0
  7 39  1  0
  7 40  1  0
  8 41  1  0
  8 42  1  0
 15 43  1  0
 15 44  1  0
 17 45  1  0
 18 46  1  0
 19 47  1  0
 21 48  1  0
 22 49  1  0
 23 50  1  0
 24 51  1  0
 27 52  1  0
 28 53  1  0
 31 54  1  0
M  CHG  1  13  -1
M  END
>  <meeko>  (375) 
{"free_energy": -6.33, "intermolecular_energy": -8.71, "internal_energy": -1.95, "cluster_size": 160, "cluster_id": 12, "rank_in_cluster": 50}

$$$$

     RDKit          3D

 54 57  0  0  0  0  0  0  0  0999 V2000
    8.1480   37.9490    9.7630 C   0  0  0  0  0  0  0  0  0  0  0  0
    7.7730   36.4660    9.8220 C   0  0  0  0  0  0  0  0  0  0  0  0
    8.5290   35.8340   10.8430 O   0  0  0  0  0  0  0  0  0  0  0  0
    9.1200   36.5740   11.8040 C   0  0  0  0  0  0  0  0  0  0  0  0
    8.5520   36.9150   12.8430 O   0  0  0  0  0  0  0  0  0  0  0  0
   10.4410   36.8780   11.4480 N   0  0  0  0  0  0  0  0  0  0  0  0
   11.0730   36.3200   10.2470 C   0  0  0  0  0  0  0  0  0  0  0  0
   11.2730   37.7540   12.2830 C   0  0  0  0  0  0  0  0  0  0  0  0
   11.2830   39.1800   11.7840 C   0  0  0  0  0  0  0  0  0  0  0  0
   11.8350   39.6870   10.6210 C   0  0  0  0  0  0  0  0  0  0  0  0
   12.5460   38.9750    9.5130 C   0  0  0  0  0  0  0  0  0  0  0  0
   13.7040   38.5510    9.7180 O   0  0  0  0  0  0  0  0  0  0  0  0
   12.0000   38.8260    8.3990 O   0  0  0  0  0  1  0  0  0  0  0  0
   11.6560   41.0870   10.6060 N   0  0  0  0  0  0  0  0  0  0  0  0
   12.0660   42.0460    9.5760 C   0  0  0  0  0  0  0  0  0  0  0  0
   13.3400   41.6660    8.8110 C   0  0  0  0  0  0  0  0  0  0  0  0
   13.3270   41.5310    7.4000 C   0  0  0  0  0  0  0  0  0  0  0  0
   14.4920   41.1830    6.6950 C   0  0  0  0  0  0  0  0  0  0  0  0
   15.6930   40.9610    7.3890 C   0  0  0  0  0  0  0  0  0  0  0  0
   15.7310   41.0870    8.7910 C   0  0  0  0  0  0  0  0  0  0  0  0
   16.9460   40.8600    9.4710 C   0  0  0  0  0  0  0  0  0  0  0  0
   17.0070   40.9800   10.8710 C   0  0  0  0  0  0  0  0  0  0  0  0
   15.8530   41.3280   11.5940 C   0  0  0  0  0  0  0  0  0  0  0  0
   14.6370   41.5550   10.9210 C   0  0  0  0  0  0  0  0  0  0  0  0
   14.5570   41.4390    9.5110 C   0  0  0  0  0  0  0  0  0  0  0  0
   10.9890   41.4750   11.7600 C   0  0  0  0  0  0  0  0  0  0  0  0
   10.5850   42.7420   12.2310 C   0  0  0  0  0  0  0  0  0  0  0  0
    9.9030   42.8490   13.4550 C   0  0  0  0  0  0  0  0  0  0  0  0
    9.6260   41.6920   14.2020 C   0  0  0  0  0  0  0  0  0  0  0  0
    8.9660   41.7890   15.3810 F   0  0  0  0  0  0  0  0  0  0  0  0
   10.0360   40.4310   13.7280 C   0  0  0  0  0  0  0  0  0  0  0  0
   10.7310   40.2910   12.5020 C   0  0  0  0  0  0  0  0  0  0  0  0
    8.2476   38.3430   10.7852 H   0  0  0  0  0  0  0  0  0  0  0  0
    9.1037   38.0647    9.2307 H   0  0  0  0  0  0  0  0  0  0  0  0
    7.3622   38.5050    9.2307 H   0  0  0  0  0  0  0  0  0  0  0  0
    6.7001   36.3663   10.0434 H   0  0  0  0  0  0  0  0  0  0  0  0
    7.9898   35.9911    8.8538 H   0  0  0  0  0  0  0  0  0  0  0  0
   11.8672   35.6188   10.5428 H   0  0  0  0  0  0  0  0  0  0  0  0
   10.3183   35.7882    9.6490 H   0  0  0  0  0  0  0  0  0  0  0  0
   11.5072   37.1347    9.6490 H   0  0  0  0  0  0  0  0  0  0  0  0
   10.8800   37.7413   13.3103 H   0  0  0  0  0  0  0  0  0  0  0  0
   12.3053   37.3760   12.2435 H   0  0  0  0  0  0  0  0  0  0  0  0
   11.2456   42.1385    8.8491 H   0  0  0  0  0  0  0  0  0  0  0  0
   12.2901   42.9862   10.1012 H   0  0  0  0  0  0  0  0  0  0  0  0
   12.3907   41.7012    6.8483 H   0  0  0  0  0  0  0  0  0  0  0  0
   14.4633   41.0845    5.5998 H   0  0  0  0  0  0  0  0  0  0  0  0
   16.6045   40.6885    6.8368 H   0  0  0  0  0  0  0  0  0  0  0  0
   17.8488   40.5882    8.9043 H   0  0  0  0  0  0  0  0  0  0  0  0
   17.9555   40.8019   11.3988 H   0  0  0  0  0  0  0  0  0  0  0  0
   15.8998   41.4233   12.6889 H   0  0  0  0  0  0  0  0  0  0  0  0
   13.7392   41.8254   11.4963 H   0  0  0  0  0  0  0  0  0  0  0  0
   10.8034   43.6445   11.6412 H   0  0  0  0  0  0  0  0  0  0  0  0
    9.5873   43.8350   13.8268 H   0  0  0  0  0  0  0  0  0  0  0  0
    9.8113   39.5340   14.3237 H   0  0  0  0  0  0  0  0  0  0  0  0
  1  2  1  0
  2  3  1  0
  3  4  1  0
  4  5  2  0
  4  6  1  0
  6  7  1  0
  6  8  1  0
  8  9  1  0
  9 10  2  0
 10 11  1  0
 11 12  2  0
 11 13  1  0
 10 14  1  0
 14 15  1  0
 15 16  1  0
 16 17  2  0
 17 18  1  0
 18 19  2  0
 19 20  1  0
 20 21  2  0
 21 22  1  0
 22 23  2  0
 23 24  1  0
 24 25  2  0
 14 26  1  0
 26 27  2  0
 27 28  1  0
 28 29  2  0
 29 30  1  0
 29 31  1  0
 31 32  2  0
 32  9  1  0
 25 16  1  0
 32 26  1  0
 25 20  1  0
  1 33  1  0
  1 34  1  0
  1 35  1  0
  2 36  1  0
  2 37  1  0
  7 38  1  0
  7 39  1  0
  7 40  1  0
  8 41  1  0
  8 42  1  0
 15 43  1  0
 15 44  1  0
 17 45  1  0
 18 46  1  0
 19 47  1  0
 21 48  1  0
 22 49  1  0
 23 50  1  0
 24 51  1  0
 27 52  1  0
 28 53  1  0
 31 54  1  0
M  CHG  1  13  -1
M  END
>  <meeko>  (376) 
{"free_energy": -4.02, "intermolecular_energy": -6.41, "internal_energy": -2.04, "cluster_size": 87, "cluster_id": 14, "rank_in_cluster": 85}

$$$$

     RDKit          3D

 54 57  0  0  0  0  0  0  0  0999 V2000
    7.2450   37.6870    6.1340 C   0  0  0  0  0  0  0  0  0  0  0  0
    6.6150   36.7570    7.1740 C   0  0  0  0  0  0  0  0  0  0  0  0
    7.5850   35.8180    7.6100 O   0  0  0  0  0  0  0  0  0  0  0  0
    7.5680   35.3690    8.8830 C   0  0  0  0  0  0  0  0  0  0  0  0
    6.9720   34.3490    9.2340 O   0  0  0  0  0  0  0  0  0  0  0  0
    8.3170   36.2140    9.7120 N   0  0  0  0  0  0  0  0  0  0  0  0
    7.8870   37.5810   10.0250 C   0  0  0  0  0  0  0  0  0  0  0  0
    9.5950   35.7770   10.2910 C   0  0  0  0  0  0  0  0  0  0  0  0
   10.1290   36.7590   11.3060 C   0  0  0  0  0  0  0  0  0  0  0  0
   10.9810   37.8310   11.1100 C   0  0  0  0  0  0  0  0  0  0  0  0
   11.5890   38.3480    9.8440 C   0  0  0  0  0  0  0  0  0  0  0  0
   10.8740   39.0100    9.0620 O   0  0  0  0  0  0  0  0  0  0  0  0
   12.7830   38.1040    9.5660 O   0  0  0  0  0  1  0  0  0  0  0  0
   11.2570   38.4270   12.3600 N   0  0  0  0  0  0  0  0  0  0  0  0
   12.0980   39.5920   12.6470 C   0  0  0  0  0  0  0  0  0  0  0  0
   13.4910   39.5570   12.0030 C   0  0  0  0  0  0  0  0  0  0  0  0
   14.4930   38.6800   12.4880 C   0  0  0  0  0  0  0  0  0  0  0  0
   15.7690   38.6440   11.9020 C   0  0  0  0  0  0  0  0  0  0  0  0
   16.0690   39.4880   10.8200 C   0  0  0  0  0  0  0  0  0  0  0  0
   15.0910   40.3690   10.3210 C   0  0  0  0  0  0  0  0  0  0  0  0
   15.4100   41.2100    9.2340 C   0  0  0  0  0  0  0  0  0  0  0  0
   14.4490   42.0980    8.7200 C   0  0  0  0  0  0  0  0  0  0  0  0
   13.1660   42.1480    9.2920 C   0  0  0  0  0  0  0  0  0  0  0  0
   12.8420   41.3120   10.3780 C   0  0  0  0  0  0  0  0  0  0  0  0
   13.7970   40.4110   10.9080 C   0  0  0  0  0  0  0  0  0  0  0  0
   10.5810   37.7350   13.3560 C   0  0  0  0  0  0  0  0  0  0  0  0
   10.5320   37.9100   14.7540 C   0  0  0  0  0  0  0  0  0  0  0  0
    9.7430   37.0540   15.5410 C   0  0  0  0  0  0  0  0  0  0  0  0
    9.0070   36.0260   14.9270 C   0  0  0  0  0  0  0  0  0  0  0  0
    8.2420   35.1990   15.6790 F   0  0  0  0  0  0  0  0  0  0  0  0
    9.0650   35.8540   13.5300 C   0  0  0  0  0  0  0  0  0  0  0  0
    9.8550   36.6970   12.7120 C   0  0  0  0  0  0  0  0  0  0  0  0
    7.7911   38.4931    6.6459 H   0  0  0  0  0  0  0  0  0  0  0  0
    7.9419   37.1144    5.5044 H   0  0  0  0  0  0  0  0  0  0  0  0
    6.4547   38.1218    5.5044 H   0  0  0  0  0  0  0  0  0  0  0  0
    6.2645   37.3490    8.0323 H   0  0  0  0  0  0  0  0  0  0  0  0
    5.7624   36.2258    6.7258 H   0  0  0  0  0  0  0  0  0  0  0  0
    7.8459   37.7116   11.1164 H   0  0  0  0  0  0  0  0  0  0  0  0
    8.6031   38.2978    9.5966 H   0  0  0  0  0  0  0  0  0  0  0  0
    6.8896   37.7588    9.5966 H   0  0  0  0  0  0  0  0  0  0  0  0
    9.4463   34.8047   10.7835 H   0  0  0  0  0  0  0  0  0  0  0  0
   10.3279   35.7051    9.4739 H   0  0  0  0  0  0  0  0  0  0  0  0
   11.5755   40.4889   12.2828 H   0  0  0  0  0  0  0  0  0  0  0  0
   12.2607   39.5950   13.7349 H   0  0  0  0  0  0  0  0  0  0  0  0
   14.2680   38.0172   13.3365 H   0  0  0  0  0  0  0  0  0  0  0  0
   16.5334   37.9549   12.2904 H   0  0  0  0  0  0  0  0  0  0  0  0
   17.0689   39.4605   10.3623 H   0  0  0  0  0  0  0  0  0  0  0  0
   16.4143   41.1707    8.7871 H   0  0  0  0  0  0  0  0  0  0  0  0
   14.7005   42.7522    7.8722 H   0  0  0  0  0  0  0  0  0  0  0  0
   12.4130   42.8420    8.8903 H   0  0  0  0  0  0  0  0  0  0  0  0
   11.8356   41.3595   10.8195 H   0  0  0  0  0  0  0  0  0  0  0  0
   11.1110   38.7160   15.2284 H   0  0  0  0  0  0  0  0  0  0  0  0
    9.7016   37.1878   16.6320 H   0  0  0  0  0  0  0  0  0  0  0  0
    8.4827   35.0456   13.0638 H   0  0  0  0  0  0  0  0  0  0  0  0
  1  2  1  0
  2  3  1  0
  3  4  1  0
  4  5  2  0
  4  6  1  0
  6  7  1  0
  6  8  1  0
  8  9  1  0
  9 10  2  0
 10 11  1  0
 11 12  2  0
 11 13  1  0
 10 14  1  0
 14 15  1  0
 15 16  1  0
 16 17  2  0
 17 18  1  0
 18 19  2  0
 19 20  1  0
 20 21  2  0
 21 22  1  0
 22 23  2  0
 23 24  1  0
 24 25  2  0
 14 26  1  0
 26 27  2  0
 27 28  1  0
 28 29  2  0
 29 30  1  0
 29 31  1  0
 31 32  2  0
 32  9  1  0
 25 16  1  0
 32 26  1  0
 25 20  1  0
  1 33  1  0
  1 34  1  0
  1 35  1  0
  2 36  1  0
  2 37  1  0
  7 38  1  0
  7 39  1  0
  7 40  1  0
  8 41  1  0
  8 42  1  0
 15 43  1  0
 15 44  1  0
 17 45  1  0
 18 46  1  0
 19 47  1  0
 21 48  1  0
 22 49  1  0
 23 50  1  0
 24 51  1  0
 27 52  1  0
 28 53  1  0
 31 54  1  0
M  CHG  1  13  -1
M  END
>  <meeko>  (377) 
{"free_energy": -5.47, "intermolecular_energy": -7.86, "internal_energy": -1.68, "cluster_size": 124, "cluster_id": 20, "rank_in_cluster": 92}

$$$$

     RDKit          3D

 54 57  0  0  0  0  0  0  0  0999 V2000
   15.4530   41.3600   16.5770 C   0  0  0  0  0  0  0  0  0  0  0  0
   14.6630   40.7350   15.4240 C   0  0  0  0  0  0  0  0  0  0  0  0
   13.3190   40.5370   15.8310 O   0  0  0  0  0  0  0  0  0  0  0  0
   12.3720   41.4410   15.5000 C   0  0  0  0  0  0  0  0  0  0  0  0
   11.6970   42.0510   16.3300 O   0  0  0  0  0  0  0  0  0  0  0  0
   12.2860   41.5750   14.1080 N   0  0  0  0  0  0  0  0  0  0  0  0
   12.3550   42.8810   13.4440 C   0  0  0  0  0  0  0  0  0  0  0  0
   12.0930   40.4050   13.2400 C   0  0  0  0  0  0  0  0  0  0  0  0
   10.9110   40.5690   12.3140 C   0  0  0  0  0  0  0  0  0  0  0  0
   10.7010   40.0040   11.0680 C   0  0  0  0  0  0  0  0  0  0  0  0
   11.5570   39.0480   10.2980 C   0  0  0  0  0  0  0  0  0  0  0  0
   12.3890   38.3530   10.9190 O   0  0  0  0  0  0  0  0  0  0  0  0
   11.4530   38.9610    9.0550 O   0  0  0  0  0  1  0  0  0  0  0  0
    9.4850   40.4930   10.5460 N   0  0  0  0  0  0  0  0  0  0  0  0
    8.8470   40.1710    9.2670 C   0  0  0  0  0  0  0  0  0  0  0  0
    8.4810   38.6920    9.0840 C   0  0  0  0  0  0  0  0  0  0  0  0
    8.8800   37.7220   10.0370 C   0  0  0  0  0  0  0  0  0  0  0  0
    8.5460   36.3660    9.8730 C   0  0  0  0  0  0  0  0  0  0  0  0
    7.8080   35.9550    8.7520 C   0  0  0  0  0  0  0  0  0  0  0  0
    7.4010   36.8990    7.7900 C   0  0  0  0  0  0  0  0  0  0  0  0
    6.6610   36.4680    6.6700 C   0  0  0  0  0  0  0  0  0  0  0  0
    6.2440   37.3940    5.6970 C   0  0  0  0  0  0  0  0  0  0  0  0
    6.5670   38.7550    5.8430 C   0  0  0  0  0  0  0  0  0  0  0  0
    7.3070   39.1910    6.9590 C   0  0  0  0  0  0  0  0  0  0  0  0
    7.7340   38.2720    7.9490 C   0  0  0  0  0  0  0  0  0  0  0  0
    8.9160   41.3730   11.4590 C   0  0  0  0  0  0  0  0  0  0  0  0
    7.7290   42.1330   11.4170 C   0  0  0  0  0  0  0  0  0  0  0  0
    7.3820   42.9510   12.5050 C   0  0  0  0  0  0  0  0  0  0  0  0
    8.2220   43.0070   13.6300 C   0  0  0  0  0  0  0  0  0  0  0  0
    7.8920   43.7910   14.6840 F   0  0  0  0  0  0  0  0  0  0  0  0
    9.4080   42.2480   13.6630 C   0  0  0  0  0  0  0  0  0  0  0  0
    9.7870   41.4190   12.5800 C   0  0  0  0  0  0  0  0  0  0  0  0
   15.0297   41.0251   17.5355 H   0  0  0  0  0  0  0  0  0  0  0  0
   16.5057   41.0476   16.5120 H   0  0  0  0  0  0  0  0  0  0  0  0
   15.3912   42.4563   16.5120 H   0  0  0  0  0  0  0  0  0  0  0  0
   14.6883   41.4075   14.5539 H   0  0  0  0  0  0  0  0  0  0  0  0
   15.1118   39.7687   15.1505 H   0  0  0  0  0  0  0  0  0  0  0  0
   12.3970   43.6763   14.2027 H   0  0  0  0  0  0  0  0  0  0  0  0
   13.2568   42.9257   12.8156 H   0  0  0  0  0  0  0  0  0  0  0  0
   11.4630   43.0205   12.8156 H   0  0  0  0  0  0  0  0  0  0  0  0
   12.9998   40.2600   12.6344 H   0  0  0  0  0  0  0  0  0  0  0  0
   11.8982   39.5353   13.8847 H   0  0  0  0  0  0  0  0  0  0  0  0
    7.9242   40.7643    9.1861 H   0  0  0  0  0  0  0  0  0  0  0  0
    9.5845   40.4062    8.4855 H   0  0  0  0  0  0  0  0  0  0  0  0
    9.4596   38.0345   10.9181 H   0  0  0  0  0  0  0  0  0  0  0  0
    8.8632   35.6270   10.6235 H   0  0  0  0  0  0  0  0  0  0  0  0
    7.5473   34.8939    8.6249 H   0  0  0  0  0  0  0  0  0  0  0  0
    6.4088   35.4033    6.5567 H   0  0  0  0  0  0  0  0  0  0  0  0
    5.6668   37.0547    4.8242 H   0  0  0  0  0  0  0  0  0  0  0  0
    6.2408   39.4808    5.0835 H   0  0  0  0  0  0  0  0  0  0  0  0
    7.5563   40.2573    7.0632 H   0  0  0  0  0  0  0  0  0  0  0  0
    7.0756   42.0854   10.5334 H   0  0  0  0  0  0  0  0  0  0  0  0
    6.4567   43.5451   12.4764 H   0  0  0  0  0  0  0  0  0  0  0  0
   10.0549   42.3007   14.5511 H   0  0  0  0  0  0  0  0  0  0  0  0
  1  2  1  0
  2  3  1  0
  3  4  1  0
  4  5  2  0
  4  6  1  0
  6  7  1  0
  6  8  1  0
  8  9  1  0
  9 10  2  0
 10 11  1  0
 11 12  2  0
 11 13  1  0
 10 14  1  0
 14 15  1  0
 15 16  1  0
 16 17  2  0
 17 18  1  0
 18 19  2  0
 19 20  1  0
 20 21  2  0
 21 22  1  0
 22 23  2  0
 23 24  1  0
 24 25  2  0
 14 26  1  0
 26 27  2  0
 27 28  1  0
 28 29  2  0
 29 30  1  0
 29 31  1  0
 31 32  2  0
 32  9  1  0
 25 16  1  0
 32 26  1  0
 25 20  1  0
  1 33  1  0
  1 34  1  0
  1 35  1  0
  2 36  1  0
  2 37  1  0
  7 38  1  0
  7 39  1  0
  7 40  1  0
  8 41  1  0
  8 42  1  0
 15 43  1  0
 15 44  1  0
 17 45  1  0
 18 46  1  0
 19 47  1  0
 21 48  1  0
 22 49  1  0
 23 50  1  0
 24 51  1  0
 27 52  1  0
 28 53  1  0
 31 54  1  0
M  CHG  1  13  -1
M  END
>  <meeko>  (378) 
{"free_energy": -6.47, "intermolecular_energy": -8.85, "internal_energy": -1.19, "cluster_size": 47, "cluster_id": 29, "rank_in_cluster": 2}

$$$$

     RDKit          3D

 54 57  0  0  0  0  0  0  0  0999 V2000
   10.6180   43.8580   16.4220 C   0  0  0  0  0  0  0  0  0  0  0  0
   11.6150   43.1940   17.3740 C   0  0  0  0  0  0  0  0  0  0  0  0
   11.4120   41.7900   17.3590 O   0  0  0  0  0  0  0  0  0  0  0  0
   12.1410   41.0100   16.5340 C   0  0  0  0  0  0  0  0  0  0  0  0
   13.2350   40.5330   16.8430 O   0  0  0  0  0  0  0  0  0  0  0  0
   11.4770   40.8280   15.3140 N   0  0  0  0  0  0  0  0  0  0  0  0
   10.1520   40.2040   15.2330 C   0  0  0  0  0  0  0  0  0  0  0  0
   12.0940   41.2310   14.0430 C   0  0  0  0  0  0  0  0  0  0  0  0
   11.1760   41.0060   12.8650 C   0  0  0  0  0  0  0  0  0  0  0  0
   11.3800   40.2180   11.7460 C   0  0  0  0  0  0  0  0  0  0  0  0
   12.5400   39.3410   11.3950 C   0  0  0  0  0  0  0  0  0  0  0  0
   12.9700   39.3540   10.2220 O   0  0  0  0  0  0  0  0  0  0  0  0
   13.0570   38.5950   12.2560 O   0  0  0  0  0  1  0  0  0  0  0  0
   10.2760   40.3660   10.8790 N   0  0  0  0  0  0  0  0  0  0  0  0
   10.0430   39.7220    9.5830 C   0  0  0  0  0  0  0  0  0  0  0  0
    9.6810   38.2330    9.6590 C   0  0  0  0  0  0  0  0  0  0  0  0
   10.3450   37.3700   10.5660 C   0  0  0  0  0  0  0  0  0  0  0  0
   10.0170   36.0050   10.6390 C   0  0  0  0  0  0  0  0  0  0  0  0
    9.0190   35.4770    9.8040 C   0  0  0  0  0  0  0  0  0  0  0  0
    8.3460   36.3140    8.8940 C   0  0  0  0  0  0  0  0  0  0  0  0
    7.3470   35.7660    8.0620 C   0  0  0  0  0  0  0  0  0  0  0  0
    6.6620   36.5830    7.1450 C   0  0  0  0  0  0  0  0  0  0  0  0
    6.9760   37.9510    7.0580 C   0  0  0  0  0  0  0  0  0  0  0  0
    7.9730   38.5040    7.8840 C   0  0  0  0  0  0  0  0  0  0  0  0
    8.6720   37.6950    8.8140 C   0  0  0  0  0  0  0  0  0  0  0  0
    9.3660   41.2500   11.4440 C   0  0  0  0  0  0  0  0  0  0  0  0
    8.1260   41.7420   10.9860 C   0  0  0  0  0  0  0  0  0  0  0  0
    7.3920   42.6390   11.7800 C   0  0  0  0  0  0  0  0  0  0  0  0
    7.8990   43.0400   13.0290 C   0  0  0  0  0  0  0  0  0  0  0  0
    7.1950   43.9010   13.8000 F   0  0  0  0  0  0  0  0  0  0  0  0
    9.1400   42.5470   13.4770 C   0  0  0  0  0  0  0  0  0  0  0  0
    9.9050   41.6470   12.6960 C   0  0  0  0  0  0  0  0  0  0  0  0
    9.8420   44.3748   17.0058 H   0  0  0  0  0  0  0  0  0  0  0  0
   11.1455   44.5858   15.7879 H   0  0  0  0  0  0  0  0  0  0  0  0
   10.1498   43.0908   15.7879 H   0  0  0  0  0  0  0  0  0  0  0  0
   12.6410   43.4207   17.0485 H   0  0  0  0  0  0  0  0  0  0  0  0
   11.4634   43.5779   18.3936 H   0  0  0  0  0  0  0  0  0  0  0  0
    9.7690   40.0236   16.2483 H   0  0  0  0  0  0  0  0  0  0  0  0
    9.4640   40.8728   14.6950 H   0  0  0  0  0  0  0  0  0  0  0  0
   10.2294   39.2477   14.6950 H   0  0  0  0  0  0  0  0  0  0  0  0
   12.3468   42.3003   14.0956 H   0  0  0  0  0  0  0  0  0  0  0  0
   12.9919   40.6134   13.8934 H   0  0  0  0  0  0  0  0  0  0  0  0
    9.2176   40.2495    9.0825 H   0  0  0  0  0  0  0  0  0  0  0  0
   10.9937   39.7813    9.0329 H   0  0  0  0  0  0  0  0  0  0  0  0
   11.1291   37.7744   11.2230 H   0  0  0  0  0  0  0  0  0  0  0  0
   10.5421   35.3505   11.3502 H   0  0  0  0  0  0  0  0  0  0  0  0
    8.7630   34.4087    9.8611 H   0  0  0  0  0  0  0  0  0  0  0  0
    7.1030   34.6956    8.1309 H   0  0  0  0  0  0  0  0  0  0  0  0
    5.8831   36.1534    6.4979 H   0  0  0  0  0  0  0  0  0  0  0  0
    6.4405   38.5915    6.3418 H   0  0  0  0  0  0  0  0  0  0  0  0
    8.2118   39.5750    7.8067 H   0  0  0  0  0  0  0  0  0  0  0  0
    7.7342   41.4239   10.0086 H   0  0  0  0  0  0  0  0  0  0  0  0
    6.4250   43.0260   11.4263 H   0  0  0  0  0  0  0  0  0  0  0  0
    9.5239   42.8686   14.4564 H   0  0  0  0  0  0  0  0  0  0  0  0
  1  2  1  0
  2  3  1  0
  3  4  1  0
  4  5  2  0
  4  6  1  0
  6  7  1  0
  6  8  1  0
  8  9  1  0
  9 10  2  0
 10 11  1  0
 11 12  2  0
 11 13  1  0
 10 14  1  0
 14 15  1  0
 15 16  1  0
 16 17  2  0
 17 18  1  0
 18 19  2  0
 19 20  1  0
 20 21  2  0
 21 22  1  0
 22 23  2  0
 23 24  1  0
 24 25  2  0
 14 26  1  0
 26 27  2  0
 27 28  1  0
 28 29  2  0
 29 30  1  0
 29 31  1  0
 31 32  2  0
 32  9  1  0
 25 16  1  0
 32 26  1  0
 25 20  1  0
  1 33  1  0
  1 34  1  0
  1 35  1  0
  2 36  1  0
  2 37  1  0
  7 38  1  0
  7 39  1  0
  7 40  1  0
  8 41  1  0
  8 42  1  0
 15 43  1  0
 15 44  1  0
 17 45  1  0
 18 46  1  0
 19 47  1  0
 21 48  1  0
 22 49  1  0
 23 50  1  0
 24 51  1  0
 27 52  1  0
 28 53  1  0
 31 54  1  0
M  CHG  1  13  -1
M  END
>  <meeko>  (379) 
{"free_energy": -5.38, "intermolecular_energy": -7.77, "internal_energy": -1.49, "cluster_size": 47, "cluster_id": 29, "rank_in_cluster": 19}

$$$$

     RDKit          3D

 54 57  0  0  0  0  0  0  0  0999 V2000
    5.6290   43.4190   13.5190 C   0  0  0  0  0  0  0  0  0  0  0  0
    6.6930   43.8520   12.5080 C   0  0  0  0  0  0  0  0  0  0  0  0
    7.9730   43.7760   13.1160 O   0  0  0  0  0  0  0  0  0  0  0  0
    8.6360   42.6000   13.1500 C   0  0  0  0  0  0  0  0  0  0  0  0
    8.8740   41.9860   14.1920 O   0  0  0  0  0  0  0  0  0  0  0  0
    8.9940   42.2000   11.8560 N   0  0  0  0  0  0  0  0  0  0  0  0
    8.1170   41.3650   11.0280 C   0  0  0  0  0  0  0  0  0  0  0  0
   10.2880   42.5770   11.2720 C   0  0  0  0  0  0  0  0  0  0  0  0
   11.0540   41.3800   10.7590 C   0  0  0  0  0  0  0  0  0  0  0  0
   11.1100   40.0990   11.2790 C   0  0  0  0  0  0  0  0  0  0  0  0
   10.4090   39.5200   12.4670 C   0  0  0  0  0  0  0  0  0  0  0  0
    9.3790   38.8370   12.2820 O   0  0  0  0  0  0  0  0  0  0  0  0
   10.8350   39.7320   13.6230 O   0  0  0  0  0  1  0  0  0  0  0  0
   12.0050   39.3330   10.5020 N   0  0  0  0  0  0  0  0  0  0  0  0
   12.3770   37.9240   10.6660 C   0  0  0  0  0  0  0  0  0  0  0  0
   13.8580   37.6800   10.9820 C   0  0  0  0  0  0  0  0  0  0  0  0
   14.5980   36.6970   10.2790 C   0  0  0  0  0  0  0  0  0  0  0  0
   15.9550   36.4700   10.5650 C   0  0  0  0  0  0  0  0  0  0  0  0
   16.5980   37.2220   11.5610 C   0  0  0  0  0  0  0  0  0  0  0  0
   15.8850   38.2030   12.2750 C   0  0  0  0  0  0  0  0  0  0  0  0
   16.5460   38.9490   13.2720 C   0  0  0  0  0  0  0  0  0  0  0  0
   15.8530   39.9340   13.9980 C   0  0  0  0  0  0  0  0  0  0  0  0
   14.4950   40.1760   13.7260 C   0  0  0  0  0  0  0  0  0  0  0  0
   13.8290   39.4350   12.7320 C   0  0  0  0  0  0  0  0  0  0  0  0
   14.5120   38.4390   11.9910 C   0  0  0  0  0  0  0  0  0  0  0  0
   12.5230   40.1240    9.4850 C   0  0  0  0  0  0  0  0  0  0  0  0
   13.4530   39.8500    8.4620 C   0  0  0  0  0  0  0  0  0  0  0  0
   13.7990   40.8540    7.5420 C   0  0  0  0  0  0  0  0  0  0  0  0
   13.2130   42.1270    7.6470 C   0  0  0  0  0  0  0  0  0  0  0  0
   13.5390   43.0980    6.7610 F   0  0  0  0  0  0  0  0  0  0  0  0
   12.2870   42.3950    8.6740 C   0  0  0  0  0  0  0  0  0  0  0  0
   11.9240   41.4060    9.6200 C   0  0  0  0  0  0  0  0  0  0  0  0
    6.0087   43.5735   14.5398 H   0  0  0  0  0  0  0  0  0  0  0  0
    4.7182   44.0180   13.3720 H   0  0  0  0  0  0  0  0  0  0  0  0
    5.3953   42.3542   13.3720 H   0  0  0  0  0  0  0  0  0  0  0  0
    6.6613   43.1864   11.6328 H   0  0  0  0  0  0  0  0  0  0  0  0
    6.4977   44.8855   12.1859 H   0  0  0  0  0  0  0  0  0  0  0  0
    7.4738   40.7526   11.6771 H   0  0  0  0  0  0  0  0  0  0  0  0
    7.4904   42.0086   10.3930 H   0  0  0  0  0  0  0  0  0  0  0  0
    8.7291   40.7076   10.3930 H   0  0  0  0  0  0  0  0  0  0  0  0
   10.1108   43.2690   10.4355 H   0  0  0  0  0  0  0  0  0  0  0  0
   10.8900   43.0493   12.0623 H   0  0  0  0  0  0  0  0  0  0  0  0
   11.7786   37.5061   11.4890 H   0  0  0  0  0  0  0  0  0  0  0  0
   12.1840   37.4391    9.6977 H   0  0  0  0  0  0  0  0  0  0  0  0
   14.1025   36.1024    9.4973 H   0  0  0  0  0  0  0  0  0  0  0  0
   16.5135   35.7030   10.0084 H   0  0  0  0  0  0  0  0  0  0  0  0
   17.6605   37.0442   11.7836 H   0  0  0  0  0  0  0  0  0  0  0  0
   17.6088   38.7597   13.4830 H   0  0  0  0  0  0  0  0  0  0  0  0
   16.3717   40.5132   14.7761 H   0  0  0  0  0  0  0  0  0  0  0  0
   13.9514   40.9469   14.2919 H   0  0  0  0  0  0  0  0  0  0  0  0
   12.7661   39.6313   12.5280 H   0  0  0  0  0  0  0  0  0  0  0  0
   13.9074   38.8513    8.3840 H   0  0  0  0  0  0  0  0  0  0  0  0
   14.5254   40.6445    6.7430 H   0  0  0  0  0  0  0  0  0  0  0  0
   11.8355   43.3957    8.7427 H   0  0  0  0  0  0  0  0  0  0  0  0
  1  2  1  0
  2  3  1  0
  3  4  1  0
  4  5  2  0
  4  6  1  0
  6  7  1  0
  6  8  1  0
  8  9  1  0
  9 10  2  0
 10 11  1  0
 11 12  2  0
 11 13  1  0
 10 14  1  0
 14 15  1  0
 15 16  1  0
 16 17  2  0
 17 18  1  0
 18 19  2  0
 19 20  1  0
 20 21  2  0
 21 22  1  0
 22 23  2  0
 23 24  1  0
 24 25  2  0
 14 26  1  0
 26 27  2  0
 27 28  1  0
 28 29  2  0
 29 30  1  0
 29 31  1  0
 31 32  2  0
 32  9  1  0
 25 16  1  0
 32 26  1  0
 25 20  1  0
  1 33  1  0
  1 34  1  0
  1 35  1  0
  2 36  1  0
  2 37  1  0
  7 38  1  0
  7 39  1  0
  7 40  1  0
  8 41  1  0
  8 42  1  0
 15 43  1  0
 15 44  1  0
 17 45  1  0
 18 46  1  0
 19 47  1  0
 21 48  1  0
 22 49  1  0
 23 50  1  0
 24 51  1  0
 27 52  1  0
 28 53  1  0
 31 54  1  0
M  CHG  1  13  -1
M  END
>  <meeko>  (380) 
{"free_energy": -4.33, "intermolecular_energy": -6.72, "internal_energy": -1.85, "cluster_size": 4, "cluster_id": 186, "rank_in_cluster": 2}

$$$$

     RDKit          3D

 54 57  0  0  0  0  0  0  0  0999 V2000
   12.4730   40.6900   19.0340 C   0  0  0  0  0  0  0  0  0  0  0  0
   11.7210   41.1700   17.7900 C   0  0  0  0  0  0  0  0  0  0  0  0
   12.6510   41.6950   16.8570 O   0  0  0  0  0  0  0  0  0  0  0  0
   13.5550   40.8810   16.2710 C   0  0  0  0  0  0  0  0  0  0  0  0
   14.5850   40.5000   16.8300 O   0  0  0  0  0  0  0  0  0  0  0  0
   13.1460   40.5440   14.9750 N   0  0  0  0  0  0  0  0  0  0  0  0
   13.2410   41.4890   13.8560 C   0  0  0  0  0  0  0  0  0  0  0  0
   12.5710   39.2260   14.6750 C   0  0  0  0  0  0  0  0  0  0  0  0
   12.3630   38.3960   15.9200 C   0  0  0  0  0  0  0  0  0  0  0  0
   11.1900   38.1500   16.6120 C   0  0  0  0  0  0  0  0  0  0  0  0
    9.7950   38.6000   16.3140 C   0  0  0  0  0  0  0  0  0  0  0  0
    9.2570   39.4330   17.0750 O   0  0  0  0  0  0  0  0  0  0  0  0
    9.1730   38.1370   15.3330 O   0  0  0  0  0  1  0  0  0  0  0  0
   11.4890   37.3730   17.7510 N   0  0  0  0  0  0  0  0  0  0  0  0
   10.5700   36.8620   18.7720 C   0  0  0  0  0  0  0  0  0  0  0  0
    9.2700   36.2570   18.2250 C   0  0  0  0  0  0  0  0  0  0  0  0
    8.0110   36.6590   18.7360 C   0  0  0  0  0  0  0  0  0  0  0  0
    6.8180   36.1080   18.2370 C   0  0  0  0  0  0  0  0  0  0  0  0
    6.8620   35.1420   17.2190 C   0  0  0  0  0  0  0  0  0  0  0  0
    8.1010   34.7250   16.6960 C   0  0  0  0  0  0  0  0  0  0  0  0
    8.1270   33.7540   15.6740 C   0  0  0  0  0  0  0  0  0  0  0  0
    9.3530   33.3220   15.1370 C   0  0  0  0  0  0  0  0  0  0  0  0
   10.5570   33.8620   15.6210 C   0  0  0  0  0  0  0  0  0  0  0  0
   10.5380   34.8320   16.6420 C   0  0  0  0  0  0  0  0  0  0  0  0
    9.3120   35.2790   17.1940 C   0  0  0  0  0  0  0  0  0  0  0  0
   12.8550   37.1210   17.7880 C   0  0  0  0  0  0  0  0  0  0  0  0
   13.6550   36.4160   18.7100 C   0  0  0  0  0  0  0  0  0  0  0  0
   15.0400   36.3060   18.4960 C   0  0  0  0  0  0  0  0  0  0  0  0
   15.6180   36.9010   17.3610 C   0  0  0  0  0  0  0  0  0  0  0  0
   16.9510   36.7950   17.1460 F   0  0  0  0  0  0  0  0  0  0  0  0
   14.8120   37.6070   16.4470 C   0  0  0  0  0  0  0  0  0  0  0  0
   13.4160   37.7400   16.6390 C   0  0  0  0  0  0  0  0  0  0  0  0
   11.9427   41.0285   19.9364 H   0  0  0  0  0  0  0  0  0  0  0  0
   12.5251   39.5912   19.0298 H   0  0  0  0  0  0  0  0  0  0  0  0
   13.4916   41.1054   19.0298 H   0  0  0  0  0  0  0  0  0  0  0  0
   11.1823   40.3248   17.3367 H   0  0  0  0  0  0  0  0  0  0  0  0
   10.9997   41.9510   18.0724 H   0  0  0  0  0  0  0  0  0  0  0  0
   13.3438   42.5118   14.2476 H   0  0  0  0  0  0  0  0  0  0  0  0
   14.1188   41.2419   13.2409 H   0  0  0  0  0  0  0  0  0  0  0  0
   12.3315   41.4216   13.2409 H   0  0  0  0  0  0  0  0  0  0  0  0
   11.6000   39.3682   14.1780 H   0  0  0  0  0  0  0  0  0  0  0  0
   13.2787   38.6891   14.0262 H   0  0  0  0  0  0  0  0  0  0  0  0
   11.0946   36.0836   19.3454 H   0  0  0  0  0  0  0  0  0  0  0  0
   10.2748   37.7277   19.3831 H   0  0  0  0  0  0  0  0  0  0  0  0
    7.9666   37.4136   19.5352 H   0  0  0  0  0  0  0  0  0  0  0  0
    5.8495   36.4338   18.6442 H   0  0  0  0  0  0  0  0  0  0  0  0
    5.9279   34.7107   16.8298 H   0  0  0  0  0  0  0  0  0  0  0  0
    7.1843   33.3325   15.2950 H   0  0  0  0  0  0  0  0  0  0  0  0
    9.3695   32.5636   14.3404 H   0  0  0  0  0  0  0  0  0  0  0  0
   11.5167   33.5261   15.2013 H   0  0  0  0  0  0  0  0  0  0  0  0
   11.4858   35.2473   17.0151 H   0  0  0  0  0  0  0  0  0  0  0  0
   13.1961   35.9525   19.5958 H   0  0  0  0  0  0  0  0  0  0  0  0
   15.6683   35.7572   19.2130 H   0  0  0  0  0  0  0  0  0  0  0  0
   15.2785   38.0660   15.5629 H   0  0  0  0  0  0  0  0  0  0  0  0
  1  2  1  0
  2  3  1  0
  3  4  1  0
  4  5  2  0
  4  6  1  0
  6  7  1  0
  6  8  1  0
  8  9  1  0
  9 10  2  0
 10 11  1  0
 11 12  2  0
 11 13  1  0
 10 14  1  0
 14 15  1  0
 15 16  1  0
 16 17  2  0
 17 18  1  0
 18 19  2  0
 19 20  1  0
 20 21  2  0
 21 22  1  0
 22 23  2  0
 23 24  1  0
 24 25  2  0
 14 26  1  0
 26 27  2  0
 27 28  1  0
 28 29  2  0
 29 30  1  0
 29 31  1  0
 31 32  2  0
 32  9  1  0
 25 16  1  0
 32 26  1  0
 25 20  1  0
  1 33  1  0
  1 34  1  0
  1 35  1  0
  2 36  1  0
  2 37  1  0
  7 38  1  0
  7 39  1  0
  7 40  1  0
  8 41  1  0
  8 42  1  0
 15 43  1  0
 15 44  1  0
 17 45  1  0
 18 46  1  0
 19 47  1  0
 21 48  1  0
 22 49  1  0
 23 50  1  0
 24 51  1  0
 27 52  1  0
 28 53  1  0
 31 54  1  0
M  CHG  1  13  -1
M  END
>  <meeko>  (381) 
{"free_energy": -3.97, "intermolecular_energy": -6.36, "internal_energy": -2.66, "cluster_size": 32, "cluster_id": 118, "rank_in_cluster": 26}

$$$$

     RDKit          3D

 54 57  0  0  0  0  0  0  0  0999 V2000
    6.6390   36.7400   21.8570 C   0  0  0  0  0  0  0  0  0  0  0  0
    6.2300   36.5320   20.3970 C   0  0  0  0  0  0  0  0  0  0  0  0
    7.3600   36.1060   19.6520 O   0  0  0  0  0  0  0  0  0  0  0  0
    7.1930   35.5160   18.4480 C   0  0  0  0  0  0  0  0  0  0  0  0
    6.8590   34.3390   18.3110 O   0  0  0  0  0  0  0  0  0  0  0  0
    7.4460   36.4280   17.4150 N   0  0  0  0  0  0  0  0  0  0  0  0
    6.5420   36.5800   16.2700 C   0  0  0  0  0  0  0  0  0  0  0  0
    8.6540   37.2640   17.4160 C   0  0  0  0  0  0  0  0  0  0  0  0
    9.2100   37.4670   16.0250 C   0  0  0  0  0  0  0  0  0  0  0  0
    9.3480   36.5430   15.0040 C   0  0  0  0  0  0  0  0  0  0  0  0
    8.9610   35.0990   14.9650 C   0  0  0  0  0  0  0  0  0  0  0  0
    9.3530   34.3470   15.8840 O   0  0  0  0  0  0  0  0  0  0  0  0
    8.2750   34.6490   14.0220 O   0  0  0  0  0  1  0  0  0  0  0  0
    9.9760   37.1700   13.9070 N   0  0  0  0  0  0  0  0  0  0  0  0
   10.3200   36.5950   12.6030 C   0  0  0  0  0  0  0  0  0  0  0  0
   10.1480   37.5470   11.4120 C   0  0  0  0  0  0  0  0  0  0  0  0
    8.8580   37.9300   10.9690 C   0  0  0  0  0  0  0  0  0  0  0  0
    8.6960   38.8030    9.8790 C   0  0  0  0  0  0  0  0  0  0  0  0
    9.8230   39.3060    9.2090 C   0  0  0  0  0  0  0  0  0  0  0  0
   11.1150   38.9380    9.6290 C   0  0  0  0  0  0  0  0  0  0  0  0
   12.2360   39.4530    8.9450 C   0  0  0  0  0  0  0  0  0  0  0  0
   13.5360   39.1000    9.3460 C   0  0  0  0  0  0  0  0  0  0  0  0
   13.7190   38.2290   10.4360 C   0  0  0  0  0  0  0  0  0  0  0  0
   12.6040   37.7110   11.1230 C   0  0  0  0  0  0  0  0  0  0  0  0
   11.2870   38.0570   10.7320 C   0  0  0  0  0  0  0  0  0  0  0  0
   10.2400   38.4960   14.2260 C   0  0  0  0  0  0  0  0  0  0  0  0
   10.8560   39.5340   13.4970 C   0  0  0  0  0  0  0  0  0  0  0  0
   10.9890   40.8090   14.0700 C   0  0  0  0  0  0  0  0  0  0  0  0
   10.5040   41.0440   15.3680 C   0  0  0  0  0  0  0  0  0  0  0  0
   10.6250   42.2730   15.9250 F   0  0  0  0  0  0  0  0  0  0  0  0
    9.8920   40.0020   16.0920 C   0  0  0  0  0  0  0  0  0  0  0  0
    9.7500   38.7040   15.5440 C   0  0  0  0  0  0  0  0  0  0  0  0
    5.8551   36.3413   22.5177 H   0  0  0  0  0  0  0  0  0  0  0  0
    7.5851   36.2135   22.0513 H   0  0  0  0  0  0  0  0  0  0  0  0
    6.7708   37.8146   22.0513 H   0  0  0  0  0  0  0  0  0  0  0  0
    5.4424   35.7661   20.3411 H   0  0  0  0  0  0  0  0  0  0  0  0
    5.8484   37.4765   19.9820 H   0  0  0  0  0  0  0  0  0  0  0  0
    5.5176   36.7522   16.6319 H   0  0  0  0  0  0  0  0  0  0  0  0
    6.8641   37.4366   15.6597 H   0  0  0  0  0  0  0  0  0  0  0  0
    6.5663   35.6652   15.6597 H   0  0  0  0  0  0  0  0  0  0  0  0
    8.4047   38.2460   17.8445 H   0  0  0  0  0  0  0  0  0  0  0  0
    9.4203   36.7488   18.0138 H   0  0  0  0  0  0  0  0  0  0  0  0
   11.3723   36.2765   12.6368 H   0  0  0  0  0  0  0  0  0  0  0  0
    9.6188   35.7637   12.4375 H   0  0  0  0  0  0  0  0  0  0  0  0
    7.9695   37.5383   11.4858 H   0  0  0  0  0  0  0  0  0  0  0  0
    7.6866   39.0920    9.5510 H   0  0  0  0  0  0  0  0  0  0  0  0
    9.6960   39.9881    8.3554 H   0  0  0  0  0  0  0  0  0  0  0  0
   12.0920   40.1343    8.0935 H   0  0  0  0  0  0  0  0  0  0  0  0
   14.4075   39.5033    8.8095 H   0  0  0  0  0  0  0  0  0  0  0  0
   14.7355   37.9520   10.7523 H   0  0  0  0  0  0  0  0  0  0  0  0
   12.7575   37.0299   11.9730 H   0  0  0  0  0  0  0  0  0  0  0  0
   11.2319   39.3451   12.4806 H   0  0  0  0  0  0  0  0  0  0  0  0
   11.4709   41.6207   13.5052 H   0  0  0  0  0  0  0  0  0  0  0  0
    9.5158   40.2012   17.1063 H   0  0  0  0  0  0  0  0  0  0  0  0
  1  2  1  0
  2  3  1  0
  3  4  1  0
  4  5  2  0
  4  6  1  0
  6  7  1  0
  6  8  1  0
  8  9  1  0
  9 10  2  0
 10 11  1  0
 11 12  2  0
 11 13  1  0
 10 14  1  0
 14 15  1  0
 15 16  1  0
 16 17  2  0
 17 18  1  0
 18 19  2  0
 19 20  1  0
 20 21  2  0
 21 22  1  0
 22 23  2  0
 23 24  1  0
 24 25  2  0
 14 26  1  0
 26 27  2  0
 27 28  1  0
 28 29  2  0
 29 30  1  0
 29 31  1  0
 31 32  2  0
 32  9  1  0
 25 16  1  0
 32 26  1  0
 25 20  1  0
  1 33  1  0
  1 34  1  0
  1 35  1  0
  2 36  1  0
  2 37  1  0
  7 38  1  0
  7 39  1  0
  7 40  1  0
  8 41  1  0
  8 42  1  0
 15 43  1  0
 15 44  1  0
 17 45  1  0
 18 46  1  0
 19 47  1  0
 21 48  1  0
 22 49  1  0
 23 50  1  0
 24 51  1  0
 27 52  1  0
 28 53  1  0
 31 54  1  0
M  CHG  1  13  -1
M  END
>  <meeko>  (382) 
{"free_energy": -6.25, "intermolecular_energy": -8.63, "internal_energy": -1.52, "cluster_size": 32, "cluster_id": 54, "rank_in_cluster": 1}

$$$$

     RDKit          3D

 54 57  0  0  0  0  0  0  0  0999 V2000
   15.1210   44.8530    9.7140 C   0  0  0  0  0  0  0  0  0  0  0  0
   14.2990   43.7320    9.0740 C   0  0  0  0  0  0  0  0  0  0  0  0
   13.5830   44.2520    7.9660 O   0  0  0  0  0  0  0  0  0  0  0  0
   12.5380   43.5660    7.4540 C   0  0  0  0  0  0  0  0  0  0  0  0
   11.5470   43.2490    8.1140 O   0  0  0  0  0  0  0  0  0  0  0  0
   12.7500   43.2890    6.0980 N   0  0  0  0  0  0  0  0  0  0  0  0
   12.7760   44.3450    5.0800 C   0  0  0  0  0  0  0  0  0  0  0  0
   12.9290   41.9110    5.6210 C   0  0  0  0  0  0  0  0  0  0  0  0
   14.1000   41.2240    6.2820 C   0  0  0  0  0  0  0  0  0  0  0  0
   14.1400   40.5480    7.4890 C   0  0  0  0  0  0  0  0  0  0  0  0
   13.0390   40.2710    8.4640 C   0  0  0  0  0  0  0  0  0  0  0  0
   12.3810   39.2150    8.3430 O   0  0  0  0  0  0  0  0  0  0  0  0
   12.7710   41.0900    9.3700 O   0  0  0  0  0  1  0  0  0  0  0  0
   15.4650   40.1270    7.7310 N   0  0  0  0  0  0  0  0  0  0  0  0
   15.9860   39.3700    8.8720 C   0  0  0  0  0  0  0  0  0  0  0  0
   16.6320   40.2250    9.9720 C   0  0  0  0  0  0  0  0  0  0  0  0
   16.8260   41.6170    9.7900 C   0  0  0  0  0  0  0  0  0  0  0  0
   17.4160   42.4030   10.7940 C   0  0  0  0  0  0  0  0  0  0  0  0
   17.8270   41.8110   11.9990 C   0  0  0  0  0  0  0  0  0  0  0  0
   17.6470   40.4300   12.2030 C   0  0  0  0  0  0  0  0  0  0  0  0
   18.0650   39.8520   13.4200 C   0  0  0  0  0  0  0  0  0  0  0  0
   17.8950   38.4740   13.6450 C   0  0  0  0  0  0  0  0  0  0  0  0
   17.3050   37.6710   12.6540 C   0  0  0  0  0  0  0  0  0  0  0  0
   16.8860   38.2410   11.4370 C   0  0  0  0  0  0  0  0  0  0  0  0
   17.0490   39.6270   11.1930 C   0  0  0  0  0  0  0  0  0  0  0  0
   16.2740   40.5360    6.6780 C   0  0  0  0  0  0  0  0  0  0  0  0
   17.6560   40.3840    6.4420 C   0  0  0  0  0  0  0  0  0  0  0  0
   18.2260   40.8980    5.2650 C   0  0  0  0  0  0  0  0  0  0  0  0
   17.4130   41.5600    4.3280 C   0  0  0  0  0  0  0  0  0  0  0  0
   17.9550   42.0540    3.1900 F   0  0  0  0  0  0  0  0  0  0  0  0
   16.0340   41.7100    4.5730 C   0  0  0  0  0  0  0  0  0  0  0  0
   15.4320   41.2090    5.7530 C   0  0  0  0  0  0  0  0  0  0  0  0
   15.0615   44.7718   10.8094 H   0  0  0  0  0  0  0  0  0  0  0  0
   16.1705   44.7654    9.3963 H   0  0  0  0  0  0  0  0  0  0  0  0
   14.7219   45.8276    9.3963 H   0  0  0  0  0  0  0  0  0  0  0  0
   14.9717   42.9308    8.7340 H   0  0  0  0  0  0  0  0  0  0  0  0
   13.5923   43.3248    9.8121 H   0  0  0  0  0  0  0  0  0  0  0  0
   12.8002   45.3284    5.5723 H   0  0  0  0  0  0  0  0  0  0  0  0
   13.6715   44.2271    4.4522 H   0  0  0  0  0  0  0  0  0  0  0  0
   11.8758   44.2713    4.4522 H   0  0  0  0  0  0  0  0  0  0  0  0
   12.0146   41.3396    5.8387 H   0  0  0  0  0  0  0  0  0  0  0  0
   13.1289   41.9520    4.5401 H   0  0  0  0  0  0  0  0  0  0  0  0
   15.1523   38.8093    9.3199 H   0  0  0  0  0  0  0  0  0  0  0  0
   16.7821   38.7223    8.4760 H   0  0  0  0  0  0  0  0  0  0  0  0
   16.5098   42.0893    8.8482 H   0  0  0  0  0  0  0  0  0  0  0  0
   17.5560   43.4826   10.6360 H   0  0  0  0  0  0  0  0  0  0  0  0
   18.2900   42.4269   12.7841 H   0  0  0  0  0  0  0  0  0  0  0  0
   18.5256   40.4812   14.1959 H   0  0  0  0  0  0  0  0  0  0  0  0
   18.2231   38.0259   14.5945 H   0  0  0  0  0  0  0  0  0  0  0  0
   17.1702   36.5936   12.8299 H   0  0  0  0  0  0  0  0  0  0  0  0
   16.4270   37.6033   10.6671 H   0  0  0  0  0  0  0  0  0  0  0  0
   18.2867   39.8639    7.1781 H   0  0  0  0  0  0  0  0  0  0  0  0
   19.3038   40.7830    5.0774 H   0  0  0  0  0  0  0  0  0  0  0  0
   15.4099   42.2285    3.8303 H   0  0  0  0  0  0  0  0  0  0  0  0
  1  2  1  0
  2  3  1  0
  3  4  1  0
  4  5  2  0
  4  6  1  0
  6  7  1  0
  6  8  1  0
  8  9  1  0
  9 10  2  0
 10 11  1  0
 11 12  2  0
 11 13  1  0
 10 14  1  0
 14 15  1  0
 15 16  1  0
 16 17  2  0
 17 18  1  0
 18 19  2  0
 19 20  1  0
 20 21  2  0
 21 22  1  0
 22 23  2  0
 23 24  1  0
 24 25  2  0
 14 26  1  0
 26 27  2  0
 27 28  1  0
 28 29  2  0
 29 30  1  0
 29 31  1  0
 31 32  2  0
 32  9  1  0
 25 16  1  0
 32 26  1  0
 25 20  1  0
  1 33  1  0
  1 34  1  0
  1 35  1  0
  2 36  1  0
  2 37  1  0
  7 38  1  0
  7 39  1  0
  7 40  1  0
  8 41  1  0
  8 42  1  0
 15 43  1  0
 15 44  1  0
 17 45  1  0
 18 46  1  0
 19 47  1  0
 21 48  1  0
 22 49  1  0
 23 50  1  0
 24 51  1  0
 27 52  1  0
 28 53  1  0
 31 54  1  0
M  CHG  1  13  -1
M  END
>  <meeko>  (383) 
{"free_energy": -3.84, "intermolecular_energy": -6.22, "internal_energy": -2.31, "cluster_size": 4, "cluster_id": 239, "rank_in_cluster": 2}

$$$$

     RDKit          3D

 54 57  0  0  0  0  0  0  0  0999 V2000
    6.1660   37.0260   19.5350 C   0  0  0  0  0  0  0  0  0  0  0  0
    7.2140   37.0520   18.4200 C   0  0  0  0  0  0  0  0  0  0  0  0
    7.5560   38.3980   18.1310 O   0  0  0  0  0  0  0  0  0  0  0  0
    8.4950   39.0300   18.8680 C   0  0  0  0  0  0  0  0  0  0  0  0
    8.4710   40.2390   19.1030 O   0  0  0  0  0  0  0  0  0  0  0  0
    9.4630   38.1220   19.3150 N   0  0  0  0  0  0  0  0  0  0  0  0
    9.4110   37.5190   20.6510 C   0  0  0  0  0  0  0  0  0  0  0  0
   10.6040   37.7480   18.4690 C   0  0  0  0  0  0  0  0  0  0  0  0
   10.2580   37.7690   16.9990 C   0  0  0  0  0  0  0  0  0  0  0  0
   10.2350   38.8460   16.1290 C   0  0  0  0  0  0  0  0  0  0  0  0
   10.5750   40.2810   16.3790 C   0  0  0  0  0  0  0  0  0  0  0  0
    9.6450   41.0980   16.5520 O   0  0  0  0  0  0  0  0  0  0  0  0
   11.7670   40.6590   16.3950 O   0  0  0  0  0  1  0  0  0  0  0  0
    9.7890   38.4000   14.8660 N   0  0  0  0  0  0  0  0  0  0  0  0
    9.6150   39.1780   13.6360 C   0  0  0  0  0  0  0  0  0  0  0  0
   10.4420   38.6880   12.4410 C   0  0  0  0  0  0  0  0  0  0  0  0
   11.8420   38.4990   12.5560 C   0  0  0  0  0  0  0  0  0  0  0  0
   12.6040   38.0500   11.4630 C   0  0  0  0  0  0  0  0  0  0  0  0
   11.9800   37.7840   10.2330 C   0  0  0  0  0  0  0  0  0  0  0  0
   10.5910   37.9660   10.0940 C   0  0  0  0  0  0  0  0  0  0  0  0
    9.9820   37.6950    8.8510 C   0  0  0  0  0  0  0  0  0  0  0  0
    8.5960   37.8700    8.6890 C   0  0  0  0  0  0  0  0  0  0  0  0
    7.8160   38.3170    9.7700 C   0  0  0  0  0  0  0  0  0  0  0  0
    8.4190   38.5900   11.0130 C   0  0  0  0  0  0  0  0  0  0  0  0
    9.8130   38.4190   11.1940 C   0  0  0  0  0  0  0  0  0  0  0  0
    9.5280   37.0380   14.9280 C   0  0  0  0  0  0  0  0  0  0  0  0
    9.0550   36.1270   13.9600 C   0  0  0  0  0  0  0  0  0  0  0  0
    8.8850   34.7730   14.2960 C   0  0  0  0  0  0  0  0  0  0  0  0
    9.1900   34.3350   15.5960 C   0  0  0  0  0  0  0  0  0  0  0  0
    9.0320   33.0300   15.9250 F   0  0  0  0  0  0  0  0  0  0  0  0
    9.6580   35.2510   16.5580 C   0  0  0  0  0  0  0  0  0  0  0  0
    9.8320   36.6220   16.2520 C   0  0  0  0  0  0  0  0  0  0  0  0
    6.6703   37.0385   20.5125 H   0  0  0  0  0  0  0  0  0  0  0  0
    5.5150   37.9083   19.4469 H   0  0  0  0  0  0  0  0  0  0  0  0
    5.5595   36.1125   19.4469 H   0  0  0  0  0  0  0  0  0  0  0  0
    8.1117   36.5065   18.7464 H   0  0  0  0  0  0  0  0  0  0  0  0
    6.8051   36.5733   17.5180 H   0  0  0  0  0  0  0  0  0  0  0  0
    9.4792   38.3094   21.4129 H   0  0  0  0  0  0  0  0  0  0  0  0
    8.4626   36.9748   20.7710 H   0  0  0  0  0  0  0  0  0  0  0  0
   10.2522   36.8205   20.7710 H   0  0  0  0  0  0  0  0  0  0  0  0
   11.4256   38.4569   18.6493 H   0  0  0  0  0  0  0  0  0  0  0  0
   10.8955   36.7204   18.7317 H   0  0  0  0  0  0  0  0  0  0  0  0
    8.5522   39.1401   13.3549 H   0  0  0  0  0  0  0  0  0  0  0  0
    9.9692   40.1949   13.8608 H   0  0  0  0  0  0  0  0  0  0  0  0
   12.3398   38.7067   13.5147 H   0  0  0  0  0  0  0  0  0  0  0  0
   13.6893   37.9070   11.5712 H   0  0  0  0  0  0  0  0  0  0  0  0
   12.5769   37.4334    9.3781 H   0  0  0  0  0  0  0  0  0  0  0  0
   10.5930   37.3457    8.0057 H   0  0  0  0  0  0  0  0  0  0  0  0
    8.1232   37.6576    7.7187 H   0  0  0  0  0  0  0  0  0  0  0  0
    6.7318   38.4539    9.6445 H   0  0  0  0  0  0  0  0  0  0  0  0
    7.8003   38.9399   11.8525 H   0  0  0  0  0  0  0  0  0  0  0  0
    8.8196   36.4760   12.9437 H   0  0  0  0  0  0  0  0  0  0  0  0
    8.5150   34.0595   13.5450 H   0  0  0  0  0  0  0  0  0  0  0  0
    9.8938   34.8926   17.5709 H   0  0  0  0  0  0  0  0  0  0  0  0
  1  2  1  0
  2  3  1  0
  3  4  1  0
  4  5  2  0
  4  6  1  0
  6  7  1  0
  6  8  1  0
  8  9  1  0
  9 10  2  0
 10 11  1  0
 11 12  2  0
 11 13  1  0
 10 14  1  0
 14 15  1  0
 15 16  1  0
 16 17  2  0
 17 18  1  0
 18 19  2  0
 19 20  1  0
 20 21  2  0
 21 22  1  0
 22 23  2  0
 23 24  1  0
 24 25  2  0
 14 26  1  0
 26 27  2  0
 27 28  1  0
 28 29  2  0
 29 30  1  0
 29 31  1  0
 31 32  2  0
 32  9  1  0
 25 16  1  0
 32 26  1  0
 25 20  1  0
  1 33  1  0
  1 34  1  0
  1 35  1  0
  2 36  1  0
  2 37  1  0
  7 38  1  0
  7 39  1  0
  7 40  1  0
  8 41  1  0
  8 42  1  0
 15 43  1  0
 15 44  1  0
 17 45  1  0
 18 46  1  0
 19 47  1  0
 21 48  1  0
 22 49  1  0
 23 50  1  0
 24 51  1  0
 27 52  1  0
 28 53  1  0
 31 54  1  0
M  CHG  1  13  -1
M  END
>  <meeko>  (384) 
{"free_energy": -5.09, "intermolecular_energy": -7.47, "internal_energy": -1.99, "cluster_size": 326, "cluster_id": 11, "rank_in_cluster": 272}

$$$$

     RDKit          3D

 54 57  0  0  0  0  0  0  0  0999 V2000
   12.7500   42.6020   10.9410 C   0  0  0  0  0  0  0  0  0  0  0  0
   12.1790   41.9160    9.6980 C   0  0  0  0  0  0  0  0  0  0  0  0
   13.0610   40.8830    9.2870 O   0  0  0  0  0  0  0  0  0  0  0  0
   12.6240   39.6080    9.2190 C   0  0  0  0  0  0  0  0  0  0  0  0
   11.5320   39.2900    8.7440 O   0  0  0  0  0  0  0  0  0  0  0  0
   13.5800   38.7320    9.7500 N   0  0  0  0  0  0  0  0  0  0  0  0
   15.0060   39.0730    9.8040 C   0  0  0  0  0  0  0  0  0  0  0  0
   13.2000   37.4060   10.2560 C   0  0  0  0  0  0  0  0  0  0  0  0
   11.9950   37.4630   11.1640 C   0  0  0  0  0  0  0  0  0  0  0  0
   11.8640   38.0850   12.3930 C   0  0  0  0  0  0  0  0  0  0  0  0
   12.8570   38.9030   13.1590 C   0  0  0  0  0  0  0  0  0  0  0  0
   13.4360   38.3830   14.1360 O   0  0  0  0  0  0  0  0  0  0  0  0
   13.0860   40.0890   12.8380 O   0  0  0  0  0  1  0  0  0  0  0  0
   10.5760   37.8170   12.9030 N   0  0  0  0  0  0  0  0  0  0  0  0
    9.9840   38.2720   14.1640 C   0  0  0  0  0  0  0  0  0  0  0  0
   10.2440   39.7460   14.5050 C   0  0  0  0  0  0  0  0  0  0  0  0
   10.8330   40.1120   15.7410 C   0  0  0  0  0  0  0  0  0  0  0  0
   11.0730   41.4610   16.0560 C   0  0  0  0  0  0  0  0  0  0  0  0
   10.7260   42.4690   15.1420 C   0  0  0  0  0  0  0  0  0  0  0  0
   10.1380   42.1300   13.9090 C   0  0  0  0  0  0  0  0  0  0  0  0
    9.7960   43.1560   13.0030 C   0  0  0  0  0  0  0  0  0  0  0  0
    9.2070   42.8410   11.7660 C   0  0  0  0  0  0  0  0  0  0  0  0
    8.9590   41.4980   11.4310 C   0  0  0  0  0  0  0  0  0  0  0  0
    9.2980   40.4690   12.3310 C   0  0  0  0  0  0  0  0  0  0  0  0
    9.8920   40.7690   13.5820 C   0  0  0  0  0  0  0  0  0  0  0  0
    9.8820   37.0240   12.0000 C   0  0  0  0  0  0  0  0  0  0  0  0
    8.5840   36.4740   12.0360 C   0  0  0  0  0  0  0  0  0  0  0  0
    8.1210   35.6990   10.9600 C   0  0  0  0  0  0  0  0  0  0  0  0
    8.9550   35.4780    9.8510 C   0  0  0  0  0  0  0  0  0  0  0  0
    8.5140   34.7350    8.8080 F   0  0  0  0  0  0  0  0  0  0  0  0
   10.2520   36.0270    9.8230 C   0  0  0  0  0  0  0  0  0  0  0  0
   10.7490   36.8070   10.8960 C   0  0  0  0  0  0  0  0  0  0  0  0
   12.3479   42.1189   11.8437 H   0  0  0  0  0  0  0  0  0  0  0  0
   13.8466   42.5155   10.9364 H   0  0  0  0  0  0  0  0  0  0  0  0
   12.4660   43.6647   10.9364 H   0  0  0  0  0  0  0  0  0  0  0  0
   11.1945   41.4863    9.9348 H   0  0  0  0  0  0  0  0  0  0  0  0
   12.0696   42.6519    8.8878 H   0  0  0  0  0  0  0  0  0  0  0  0
   15.3252   39.1493   10.8539 H   0  0  0  0  0  0  0  0  0  0  0  0
   15.5898   38.2891    9.2993 H   0  0  0  0  0  0  0  0  0  0  0  0
   15.1720   40.0362    9.2993 H   0  0  0  0  0  0  0  0  0  0  0  0
   12.9680   36.7542    9.4008 H   0  0  0  0  0  0  0  0  0  0  0  0
   14.0447   37.0146   10.8419 H   0  0  0  0  0  0  0  0  0  0  0  0
    8.8959   38.1217   14.1046 H   0  0  0  0  0  0  0  0  0  0  0  0
   10.4620   37.6821   14.9599 H   0  0  0  0  0  0  0  0  0  0  0  0
   11.1063   39.3295   16.4642 H   0  0  0  0  0  0  0  0  0  0  0  0
   11.5329   41.7270   17.0192 H   0  0  0  0  0  0  0  0  0  0  0  0
   10.9138   43.5241   15.3898 H   0  0  0  0  0  0  0  0  0  0  0  0
    9.9909   44.2063   13.2655 H   0  0  0  0  0  0  0  0  0  0  0  0
    8.9408   43.6431   11.0619 H   0  0  0  0  0  0  0  0  0  0  0  0
    8.4988   41.2503   10.4631 H   0  0  0  0  0  0  0  0  0  0  0  0
    9.0996   39.4216   12.0599 H   0  0  0  0  0  0  0  0  0  0  0  0
    7.9347   36.6518   12.9060 H   0  0  0  0  0  0  0  0  0  0  0  0
    7.1097   35.2669   10.9854 H   0  0  0  0  0  0  0  0  0  0  0  0
   10.8935   35.8459    8.9480 H   0  0  0  0  0  0  0  0  0  0  0  0
  1  2  1  0
  2  3  1  0
  3  4  1  0
  4  5  2  0
  4  6  1  0
  6  7  1  0
  6  8  1  0
  8  9  1  0
  9 10  2  0
 10 11  1  0
 11 12  2  0
 11 13  1  0
 10 14  1  0
 14 15  1  0
 15 16  1  0
 16 17  2  0
 17 18  1  0
 18 19  2  0
 19 20  1  0
 20 21  2  0
 21 22  1  0
 22 23  2  0
 23 24  1  0
 24 25  2  0
 14 26  1  0
 26 27  2  0
 27 28  1  0
 28 29  2  0
 29 30  1  0
 29 31  1  0
 31 32  2  0
 32  9  1  0
 25 16  1  0
 32 26  1  0
 25 20  1  0
  1 33  1  0
  1 34  1  0
  1 35  1  0
  2 36  1  0
  2 37  1  0
  7 38  1  0
  7 39  1  0
  7 40  1  0
  8 41  1  0
  8 42  1  0
 15 43  1  0
 15 44  1  0
 17 45  1  0
 18 46  1  0
 19 47  1  0
 21 48  1  0
 22 49  1  0
 23 50  1  0
 24 51  1  0
 27 52  1  0
 28 53  1  0
 31 54  1  0
M  CHG  1  13  -1
M  END
>  <meeko>  (385) 
{"free_energy": -4.07, "intermolecular_energy": -6.46, "internal_energy": -2.93, "cluster_size": 3, "cluster_id": 263, "rank_in_cluster": 2}

$$$$

     RDKit          3D

 54 57  0  0  0  0  0  0  0  0999 V2000
   18.2670   45.1380    5.5890 C   0  0  0  0  0  0  0  0  0  0  0  0
   18.2440   43.8420    4.7740 C   0  0  0  0  0  0  0  0  0  0  0  0
   17.3190   42.9390    5.3570 O   0  0  0  0  0  0  0  0  0  0  0  0
   17.1440   41.7110    4.8240 C   0  0  0  0  0  0  0  0  0  0  0  0
   16.7310   41.5220    3.6780 O   0  0  0  0  0  0  0  0  0  0  0  0
   17.5020   40.7200    5.7460 N   0  0  0  0  0  0  0  0  0  0  0  0
   18.9020   40.3990    6.0440 C   0  0  0  0  0  0  0  0  0  0  0  0
   16.4820   39.9260    6.4450 C   0  0  0  0  0  0  0  0  0  0  0  0
   15.5470   40.7870    7.2620 C   0  0  0  0  0  0  0  0  0  0  0  0
   15.4780   40.9280    8.6370 C   0  0  0  0  0  0  0  0  0  0  0  0
   16.3220   40.3040    9.7030 C   0  0  0  0  0  0  0  0  0  0  0  0
   17.1380   41.0220   10.3200 O   0  0  0  0  0  0  0  0  0  0  0  0
   16.2250   39.0840    9.9590 O   0  0  0  0  0  1  0  0  0  0  0  0
   14.4070   41.7910    8.9510 N   0  0  0  0  0  0  0  0  0  0  0  0
   13.9580   42.2410   10.2720 C   0  0  0  0  0  0  0  0  0  0  0  0
   13.6350   41.1140   11.2620 C   0  0  0  0  0  0  0  0  0  0  0  0
   14.2290   41.0870   12.5490 C   0  0  0  0  0  0  0  0  0  0  0  0
   13.9370   40.0560   13.4590 C   0  0  0  0  0  0  0  0  0  0  0  0
   13.0460   39.0320   13.0980 C   0  0  0  0  0  0  0  0  0  0  0  0
   12.4450   39.0370   11.8250 C   0  0  0  0  0  0  0  0  0  0  0  0
   11.5530   38.0000   11.4800 C   0  0  0  0  0  0  0  0  0  0  0  0
   10.9410   37.9840   10.2140 C   0  0  0  0  0  0  0  0  0  0  0  0
   11.2200   39.0060    9.2900 C   0  0  0  0  0  0  0  0  0  0  0  0
   12.1100   40.0440    9.6280 C   0  0  0  0  0  0  0  0  0  0  0  0
   12.7350   40.0760   10.8990 C   0  0  0  0  0  0  0  0  0  0  0  0
   13.7900   42.2020    7.7770 C   0  0  0  0  0  0  0  0  0  0  0  0
   12.6810   43.0410    7.5410 C   0  0  0  0  0  0  0  0  0  0  0  0
   12.2660   43.3010    6.2250 C   0  0  0  0  0  0  0  0  0  0  0  0
   12.9600   42.7220    5.1480 C   0  0  0  0  0  0  0  0  0  0  0  0
   12.5670   42.9710    3.8770 F   0  0  0  0  0  0  0  0  0  0  0  0
   14.0640   41.8820    5.3910 C   0  0  0  0  0  0  0  0  0  0  0  0
   14.5020   41.5970    6.7070 C   0  0  0  0  0  0  0  0  0  0  0  0
   18.2627   44.8964    6.6621 H   0  0  0  0  0  0  0  0  0  0  0  0
   19.1754   45.7084    5.3452 H   0  0  0  0  0  0  0  0  0  0  0  0
   17.3794   45.7403    5.3452 H   0  0  0  0  0  0  0  0  0  0  0  0
   17.9400   44.0632    3.7402 H   0  0  0  0  0  0  0  0  0  0  0  0
   19.2473   43.3909    4.7700 H   0  0  0  0  0  0  0  0  0  0  0  0
   19.0466   40.3658    7.1340 H   0  0  0  0  0  0  0  0  0  0  0  0
   19.1539   39.4198    5.6108 H   0  0  0  0  0  0  0  0  0  0  0  0
   19.5553   41.1706    5.6108 H   0  0  0  0  0  0  0  0  0  0  0  0
   15.8925   39.3720    5.6996 H   0  0  0  0  0  0  0  0  0  0  0  0
   17.0004   39.2434    7.1344 H   0  0  0  0  0  0  0  0  0  0  0  0
   14.7526   42.8631   10.7096 H   0  0  0  0  0  0  0  0  0  0  0  0
   13.0176   42.7879   10.1089 H   0  0  0  0  0  0  0  0  0  0  0  0
   14.9286   41.8845   12.8398 H   0  0  0  0  0  0  0  0  0  0  0  0
   14.4064   40.0512   14.4538 H   0  0  0  0  0  0  0  0  0  0  0  0
   12.8177   38.2256   13.8105 H   0  0  0  0  0  0  0  0  0  0  0  0
   11.3354   37.2009   12.2040 H   0  0  0  0  0  0  0  0  0  0  0  0
   10.2460   37.1741    9.9475 H   0  0  0  0  0  0  0  0  0  0  0  0
   10.7416   38.9950    8.2995 H   0  0  0  0  0  0  0  0  0  0  0  0
   12.3221   40.8384    8.8973 H   0  0  0  0  0  0  0  0  0  0  0  0
   12.1416   43.4913    8.3873 H   0  0  0  0  0  0  0  0  0  0  0  0
   11.4016   43.9549    6.0375 H   0  0  0  0  0  0  0  0  0  0  0  0
   14.5984   41.4370    4.5387 H   0  0  0  0  0  0  0  0  0  0  0  0
  1  2  1  0
  2  3  1  0
  3  4  1  0
  4  5  2  0
  4  6  1  0
  6  7  1  0
  6  8  1  0
  8  9  1  0
  9 10  2  0
 10 11  1  0
 11 12  2  0
 11 13  1  0
 10 14  1  0
 14 15  1  0
 15 16  1  0
 16 17  2  0
 17 18  1  0
 18 19  2  0
 19 20  1  0
 20 21  2  0
 21 22  1  0
 22 23  2  0
 23 24  1  0
 24 25  2  0
 14 26  1  0
 26 27  2  0
 27 28  1  0
 28 29  2  0
 29 30  1  0
 29 31  1  0
 31 32  2  0
 32  9  1  0
 25 16  1  0
 32 26  1  0
 25 20  1  0
  1 33  1  0
  1 34  1  0
  1 35  1  0
  2 36  1  0
  2 37  1  0
  7 38  1  0
  7 39  1  0
  7 40  1  0
  8 41  1  0
  8 42  1  0
 15 43  1  0
 15 44  1  0
 17 45  1  0
 18 46  1  0
 19 47  1  0
 21 48  1  0
 22 49  1  0
 23 50  1  0
 24 51  1  0
 27 52  1  0
 28 53  1  0
 31 54  1  0
M  CHG  1  13  -1
M  END
>  <meeko>  (386) 
{"free_energy": -3.02, "intermolecular_energy": -5.41, "internal_energy": -2.18, "cluster_size": 6, "cluster_id": 152, "rank_in_cluster": 6}

$$$$

     RDKit          3D

 54 57  0  0  0  0  0  0  0  0999 V2000
    8.6770   41.8670   11.9320 C   0  0  0  0  0  0  0  0  0  0  0  0
   10.1210   41.3580   11.9460 C   0  0  0  0  0  0  0  0  0  0  0  0
   10.6790   41.5710   13.2320 O   0  0  0  0  0  0  0  0  0  0  0  0
   10.8990   40.5240   14.0560 C   0  0  0  0  0  0  0  0  0  0  0  0
   10.0180   40.0090   14.7460 O   0  0  0  0  0  0  0  0  0  0  0  0
   12.2410   40.1270   13.9980 N   0  0  0  0  0  0  0  0  0  0  0  0
   13.3440   41.0680   14.2200 C   0  0  0  0  0  0  0  0  0  0  0  0
   12.6110   38.7410   13.6820 C   0  0  0  0  0  0  0  0  0  0  0  0
   11.4090   37.8870   13.3560 C   0  0  0  0  0  0  0  0  0  0  0  0
   10.8380   37.6290   12.1220 C   0  0  0  0  0  0  0  0  0  0  0  0
   11.2610   38.0850   10.7610 C   0  0  0  0  0  0  0  0  0  0  0  0
   11.3570   37.2380    9.8460 O   0  0  0  0  0  0  0  0  0  0  0  0
   11.5330   39.2870   10.5480 O   0  0  0  0  0  1  0  0  0  0  0  0
    9.6910   36.8290   12.3100 N   0  0  0  0  0  0  0  0  0  0  0  0
    8.7740   36.2990   11.2970 C   0  0  0  0  0  0  0  0  0  0  0  0
    8.4200   37.2800   10.1710 C   0  0  0  0  0  0  0  0  0  0  0  0
    8.4770   38.6800   10.3840 C   0  0  0  0  0  0  0  0  0  0  0  0
    8.1530   39.5820    9.3570 C   0  0  0  0  0  0  0  0  0  0  0  0
    7.7640   39.1010    8.0960 C   0  0  0  0  0  0  0  0  0  0  0  0
    7.6980   37.7150    7.8600 C   0  0  0  0  0  0  0  0  0  0  0  0
    7.3040   37.2490    6.5890 C   0  0  0  0  0  0  0  0  0  0  0  0
    7.2310   35.8690    6.3310 C   0  0  0  0  0  0  0  0  0  0  0  0
    7.5520   34.9500    7.3460 C   0  0  0  0  0  0  0  0  0  0  0  0
    7.9440   35.4080    8.6180 C   0  0  0  0  0  0  0  0  0  0  0  0
    8.0240   36.7960    8.8950 C   0  0  0  0  0  0  0  0  0  0  0  0
    9.5270   36.5760   13.6660 C   0  0  0  0  0  0  0  0  0  0  0  0
    8.5460   35.8520   14.3750 C   0  0  0  0  0  0  0  0  0  0  0  0
    8.6280   35.7460   15.7730 C   0  0  0  0  0  0  0  0  0  0  0  0
    9.6900   36.3620   16.4580 C   0  0  0  0  0  0  0  0  0  0  0  0
    9.7760   36.2600   17.8050 F   0  0  0  0  0  0  0  0  0  0  0  0
   10.6630   37.0860   15.7430 C   0  0  0  0  0  0  0  0  0  0  0  0
   10.6040   37.2160   14.3340 C   0  0  0  0  0  0  0  0  0  0  0  0
    8.3223   41.9920   12.9657 H   0  0  0  0  0  0  0  0  0  0  0  0
    8.6343   42.8344   11.4101 H   0  0  0  0  0  0  0  0  0  0  0  0
    8.0371   41.1403   11.4101 H   0  0  0  0  0  0  0  0  0  0  0  0
   10.1343   40.2831   11.7128 H   0  0  0  0  0  0  0  0  0  0  0  0
   10.7111   41.9010   11.1930 H   0  0  0  0  0  0  0  0  0  0  0  0
   13.5003   41.2014   15.3006 H   0  0  0  0  0  0  0  0  0  0  0  0
   14.2624   40.6709   13.7629 H   0  0  0  0  0  0  0  0  0  0  0  0
   13.0965   42.0375   13.7629 H   0  0  0  0  0  0  0  0  0  0  0  0
   13.2880   38.7445   12.8150 H   0  0  0  0  0  0  0  0  0  0  0  0
   13.0978   38.3118   14.5702 H   0  0  0  0  0  0  0  0  0  0  0  0
    9.2409   35.4122   10.8436 H   0  0  0  0  0  0  0  0  0  0  0  0
    7.8322   36.0754   11.8195 H   0  0  0  0  0  0  0  0  0  0  0  0
    8.7796   39.0662   11.3685 H   0  0  0  0  0  0  0  0  0  0  0  0
    8.2040   40.6654    9.5404 H   0  0  0  0  0  0  0  0  0  0  0  0
    7.5107   39.8080    7.2923 H   0  0  0  0  0  0  0  0  0  0  0  0
    7.0526   37.9684    5.7957 H   0  0  0  0  0  0  0  0  0  0  0  0
    6.9237   35.5090    5.3380 H   0  0  0  0  0  0  0  0  0  0  0  0
    7.4966   33.8699    7.1453 H   0  0  0  0  0  0  0  0  0  0  0  0
    8.1910   34.6810    9.4057 H   0  0  0  0  0  0  0  0  0  0  0  0
    7.7179   35.3711   13.8338 H   0  0  0  0  0  0  0  0  0  0  0  0
    7.8643   35.1832   16.3298 H   0  0  0  0  0  0  0  0  0  0  0  0
   11.4888   37.5621   16.2919 H   0  0  0  0  0  0  0  0  0  0  0  0
  1  2  1  0
  2  3  1  0
  3  4  1  0
  4  5  2  0
  4  6  1  0
  6  7  1  0
  6  8  1  0
  8  9  1  0
  9 10  2  0
 10 11  1  0
 11 12  2  0
 11 13  1  0
 10 14  1  0
 14 15  1  0
 15 16  1  0
 16 17  2  0
 17 18  1  0
 18 19  2  0
 19 20  1  0
 20 21  2  0
 21 22  1  0
 22 23  2  0
 23 24  1  0
 24 25  2  0
 14 26  1  0
 26 27  2  0
 27 28  1  0
 28 29  2  0
 29 30  1  0
 29 31  1  0
 31 32  2  0
 32  9  1  0
 25 16  1  0
 32 26  1  0
 25 20  1  0
  1 33  1  0
  1 34  1  0
  1 35  1  0
  2 36  1  0
  2 37  1  0
  7 38  1  0
  7 39  1  0
  7 40  1  0
  8 41  1  0
  8 42  1  0
 15 43  1  0
 15 44  1  0
 17 45  1  0
 18 46  1  0
 19 47  1  0
 21 48  1  0
 22 49  1  0
 23 50  1  0
 24 51  1  0
 27 52  1  0
 28 53  1  0
 31 54  1  0
M  CHG  1  13  -1
M  END
>  <meeko>  (387) 
{"free_energy": -6.77, "intermolecular_energy": -9.16, "internal_energy": -1.92, "cluster_size": 326, "cluster_id": 11, "rank_in_cluster": 13}

$$$$

     RDKit          3D

 54 57  0  0  0  0  0  0  0  0999 V2000
   11.9330   37.3410   15.9200 C   0  0  0  0  0  0  0  0  0  0  0  0
   11.6810   38.6880   15.2380 C   0  0  0  0  0  0  0  0  0  0  0  0
   12.5680   38.8280   14.1390 O   0  0  0  0  0  0  0  0  0  0  0  0
   13.8460   39.2120   14.3450 C   0  0  0  0  0  0  0  0  0  0  0  0
   14.7330   38.4410   14.7150 O   0  0  0  0  0  0  0  0  0  0  0  0
   13.9990   40.5780   14.0740 N   0  0  0  0  0  0  0  0  0  0  0  0
   15.3060   41.2410   14.1240 C   0  0  0  0  0  0  0  0  0  0  0  0
   12.8420   41.4250   13.7540 C   0  0  0  0  0  0  0  0  0  0  0  0
   12.1270   40.9680   12.5040 C   0  0  0  0  0  0  0  0  0  0  0  0
   10.7690   40.8080   12.2910 C   0  0  0  0  0  0  0  0  0  0  0  0
    9.6220   41.0710   13.2150 C   0  0  0  0  0  0  0  0  0  0  0  0
    9.2470   40.1590   13.9820 O   0  0  0  0  0  0  0  0  0  0  0  0
    9.0380   42.1770   13.2050 O   0  0  0  0  0  1  0  0  0  0  0  0
   10.5700   40.2990   10.9900 N   0  0  0  0  0  0  0  0  0  0  0  0
    9.3050   39.9810   10.3210 C   0  0  0  0  0  0  0  0  0  0  0  0
    9.0470   38.4830   10.1080 C   0  0  0  0  0  0  0  0  0  0  0  0
    9.5600   37.5220   11.0150 C   0  0  0  0  0  0  0  0  0  0  0  0
    9.3260   36.1500   10.8240 C   0  0  0  0  0  0  0  0  0  0  0  0
    8.5760   35.7120    9.7200 C   0  0  0  0  0  0  0  0  0  0  0  0
    8.0580   36.6470    8.8040 C   0  0  0  0  0  0  0  0  0  0  0  0
    7.3080   36.1900    7.7010 C   0  0  0  0  0  0  0  0  0  0  0  0
    6.7810   37.1060    6.7730 C   0  0  0  0  0  0  0  0  0  0  0  0
    7.0030   38.4830    6.9480 C   0  0  0  0  0  0  0  0  0  0  0  0
    7.7520   38.9460    8.0460 C   0  0  0  0  0  0  0  0  0  0  0  0
    8.2890   38.0370    8.9910 C   0  0  0  0  0  0  0  0  0  0  0  0
   11.8010   40.1330   10.3700 C   0  0  0  0  0  0  0  0  0  0  0  0
   12.1520   39.6500    9.0920 C   0  0  0  0  0  0  0  0  0  0  0  0
   13.5030   39.5950    8.7110 C   0  0  0  0  0  0  0  0  0  0  0  0
   14.4980   40.0250    9.6060 C   0  0  0  0  0  0  0  0  0  0  0  0
   15.8020   39.9790    9.2430 F   0  0  0  0  0  0  0  0  0  0  0  0
   14.1400   40.5030   10.8810 C   0  0  0  0  0  0  0  0  0  0  0  0
   12.7870   40.5630   11.2970 C   0  0  0  0  0  0  0  0  0  0  0  0
   11.9084   37.4725   17.0118 H   0  0  0  0  0  0  0  0  0  0  0  0
   11.1530   36.6261   15.6191 H   0  0  0  0  0  0  0  0  0  0  0  0
   12.9187   36.9564   15.6191 H   0  0  0  0  0  0  0  0  0  0  0  0
   10.6418   38.7302   14.8797 H   0  0  0  0  0  0  0  0  0  0  0  0
   11.8512   39.5034   15.9564 H   0  0  0  0  0  0  0  0  0  0  0  0
   15.6013   41.3908   15.1730 H   0  0  0  0  0  0  0  0  0  0  0  0
   16.0549   40.6138   13.6183 H   0  0  0  0  0  0  0  0  0  0  0  0
   15.2423   42.2158   13.6183 H   0  0  0  0  0  0  0  0  0  0  0  0
   12.1362   41.3935   14.5971 H   0  0  0  0  0  0  0  0  0  0  0  0
   13.2104   42.4463   13.5774 H   0  0  0  0  0  0  0  0  0  0  0  0
    8.4842   40.3860   10.9311 H   0  0  0  0  0  0  0  0  0  0  0  0
    9.3640   40.4301    9.3186 H   0  0  0  0  0  0  0  0  0  0  0  0
   10.1501   37.8555   11.8813 H   0  0  0  0  0  0  0  0  0  0  0  0
    9.7302   35.4185   11.5392 H   0  0  0  0  0  0  0  0  0  0  0  0
    8.3933   34.6375    9.5711 H   0  0  0  0  0  0  0  0  0  0  0  0
    7.1343   35.1123    7.5657 H   0  0  0  0  0  0  0  0  0  0  0  0
    6.1970   36.7461    5.9131 H   0  0  0  0  0  0  0  0  0  0  0  0
    6.5899   39.2011    6.2243 H   0  0  0  0  0  0  0  0  0  0  0  0
    7.9224   40.0254    8.1719 H   0  0  0  0  0  0  0  0  0  0  0  0
   11.3690   39.3169    8.3948 H   0  0  0  0  0  0  0  0  0  0  0  0
   13.7812   39.2169    7.7162 H   0  0  0  0  0  0  0  0  0  0  0  0
   14.9292   40.8377   11.5703 H   0  0  0  0  0  0  0  0  0  0  0  0
  1  2  1  0
  2  3  1  0
  3  4  1  0
  4  5  2  0
  4  6  1  0
  6  7  1  0
  6  8  1  0
  8  9  1  0
  9 10  2  0
 10 11  1  0
 11 12  2  0
 11 13  1  0
 10 14  1  0
 14 15  1  0
 15 16  1  0
 16 17  2  0
 17 18  1  0
 18 19  2  0
 19 20  1  0
 20 21  2  0
 21 22  1  0
 22 23  2  0
 23 24  1  0
 24 25  2  0
 14 26  1  0
 26 27  2  0
 27 28  1  0
 28 29  2  0
 29 30  1  0
 29 31  1  0
 31 32  2  0
 32  9  1  0
 25 16  1  0
 32 26  1  0
 25 20  1  0
  1 33  1  0
  1 34  1  0
  1 35  1  0
  2 36  1  0
  2 37  1  0
  7 38  1  0
  7 39  1  0
  7 40  1  0
  8 41  1  0
  8 42  1  0
 15 43  1  0
 15 44  1  0
 17 45  1  0
 18 46  1  0
 19 47  1  0
 21 48  1  0
 22 49  1  0
 23 50  1  0
 24 51  1  0
 27 52  1  0
 28 53  1  0
 31 54  1  0
M  CHG  1  13  -1
M  END
>  <meeko>  (388) 
{"free_energy": -6.62, "intermolecular_energy": -9.01, "internal_energy": -2.01, "cluster_size": 210, "cluster_id": 15, "rank_in_cluster": 33}

$$$$

     RDKit          3D

 54 57  0  0  0  0  0  0  0  0999 V2000
   13.4280   41.8250    7.5940 C   0  0  0  0  0  0  0  0  0  0  0  0
   12.7740   41.0340    8.7300 C   0  0  0  0  0  0  0  0  0  0  0  0
   12.9290   39.6460    8.4810 O   0  0  0  0  0  0  0  0  0  0  0  0
   13.9820   38.9790    9.0000 C   0  0  0  0  0  0  0  0  0  0  0  0
   15.1520   39.2240    8.7040 O   0  0  0  0  0  0  0  0  0  0  0  0
   13.5470   38.0010    9.9040 N   0  0  0  0  0  0  0  0  0  0  0  0
   14.4400   36.9520   10.4080 C   0  0  0  0  0  0  0  0  0  0  0  0
   12.1550   37.9610   10.3710 C   0  0  0  0  0  0  0  0  0  0  0  0
   12.0510   38.1040   11.8720 C   0  0  0  0  0  0  0  0  0  0  0  0
   11.0440   37.6700   12.7160 C   0  0  0  0  0  0  0  0  0  0  0  0
    9.7950   36.9090   12.3990 C   0  0  0  0  0  0  0  0  0  0  0  0
    8.7540   37.1710   13.0390 O   0  0  0  0  0  0  0  0  0  0  0  0
    9.7980   36.0160   11.5240 O   0  0  0  0  0  1  0  0  0  0  0  0
   11.3450   38.0830   14.0310 N   0  0  0  0  0  0  0  0  0  0  0  0
   10.5780   37.8460   15.2580 C   0  0  0  0  0  0  0  0  0  0  0  0
   10.2120   36.3790   15.5160 C   0  0  0  0  0  0  0  0  0  0  0  0
   11.0730   35.3320   15.1030 C   0  0  0  0  0  0  0  0  0  0  0  0
   10.7410   33.9860   15.3370 C   0  0  0  0  0  0  0  0  0  0  0  0
    9.5400   33.6620   15.9870 C   0  0  0  0  0  0  0  0  0  0  0  0
    8.6660   34.6840   16.4050 C   0  0  0  0  0  0  0  0  0  0  0  0
    7.4640   34.3400   17.0560 C   0  0  0  0  0  0  0  0  0  0  0  0
    6.5760   35.3440   17.4820 C   0  0  0  0  0  0  0  0  0  0  0  0
    6.8900   36.6960   17.2580 C   0  0  0  0  0  0  0  0  0  0  0  0
    8.0890   37.0460   16.6080 C   0  0  0  0  0  0  0  0  0  0  0  0
    8.9950   36.0480   16.1730 C   0  0  0  0  0  0  0  0  0  0  0  0
   12.5450   38.7830   14.0280 C   0  0  0  0  0  0  0  0  0  0  0  0
   13.2690   39.4100   15.0630 C   0  0  0  0  0  0  0  0  0  0  0  0
   14.4850   40.0530   14.7770 C   0  0  0  0  0  0  0  0  0  0  0  0
   14.9730   40.0650   13.4580 C   0  0  0  0  0  0  0  0  0  0  0  0
   16.1460   40.6800   13.1760 F   0  0  0  0  0  0  0  0  0  0  0  0
   14.2420   39.4400   12.4300 C   0  0  0  0  0  0  0  0  0  0  0  0
   13.0100   38.7900   12.6860 C   0  0  0  0  0  0  0  0  0  0  0  0
   14.0750   42.6075    8.0172 H   0  0  0  0  0  0  0  0  0  0  0  0
   14.0316   41.1456    6.9743 H   0  0  0  0  0  0  0  0  0  0  0  0
   12.6473   42.2902    6.9743 H   0  0  0  0  0  0  0  0  0  0  0  0
   13.2566   41.2928    9.6840 H   0  0  0  0  0  0  0  0  0  0  0  0
   11.7039   41.2825    8.7852 H   0  0  0  0  0  0  0  0  0  0  0  0
   14.4322   36.9611   11.5079 H   0  0  0  0  0  0  0  0  0  0  0  0
   14.0948   35.9719   10.0470 H   0  0  0  0  0  0  0  0  0  0  0  0
   15.4626   37.1363   10.0470 H   0  0  0  0  0  0  0  0  0  0  0  0
   11.5989   38.7836    9.8976 H   0  0  0  0  0  0  0  0  0  0  0  0
   11.7348   36.9824   10.0955 H   0  0  0  0  0  0  0  0  0  0  0  0
   11.1755   38.2042   16.1093 H   0  0  0  0  0  0  0  0  0  0  0  0
    9.6269   38.3852   15.1370 H   0  0  0  0  0  0  0  0  0  0  0  0
   12.0157   35.5761   14.5914 H   0  0  0  0  0  0  0  0  0  0  0  0
   11.4226   33.1867   15.0106 H   0  0  0  0  0  0  0  0  0  0  0  0
    9.2812   32.6087   16.1701 H   0  0  0  0  0  0  0  0  0  0  0  0
    7.2195   33.2820   17.2316 H   0  0  0  0  0  0  0  0  0  0  0  0
    5.6384   35.0722   17.9890 H   0  0  0  0  0  0  0  0  0  0  0  0
    6.1971   37.4825   17.5915 H   0  0  0  0  0  0  0  0  0  0  0  0
    8.3247   38.1066   16.4361 H   0  0  0  0  0  0  0  0  0  0  0  0
   12.8823   39.3957   16.0927 H   0  0  0  0  0  0  0  0  0  0  0  0
   15.0526   40.5447   15.5808 H   0  0  0  0  0  0  0  0  0  0  0  0
   14.6371   39.4569   11.4035 H   0  0  0  0  0  0  0  0  0  0  0  0
  1  2  1  0
  2  3  1  0
  3  4  1  0
  4  5  2  0
  4  6  1  0
  6  7  1  0
  6  8  1  0
  8  9  1  0
  9 10  2  0
 10 11  1  0
 11 12  2  0
 11 13  1  0
 10 14  1  0
 14 15  1  0
 15 16  1  0
 16 17  2  0
 17 18  1  0
 18 19  2  0
 19 20  1  0
 20 21  2  0
 21 22  1  0
 22 23  2  0
 23 24  1  0
 24 25  2  0
 14 26  1  0
 26 27  2  0
 27 28  1  0
 28 29  2  0
 29 30  1  0
 29 31  1  0
 31 32  2  0
 32  9  1  0
 25 16  1  0
 32 26  1  0
 25 20  1  0
  1 33  1  0
  1 34  1  0
  1 35  1  0
  2 36  1  0
  2 37  1  0
  7 38  1  0
  7 39  1  0
  7 40  1  0
  8 41  1  0
  8 42  1  0
 15 43  1  0
 15 44  1  0
 17 45  1  0
 18 46  1  0
 19 47  1  0
 21 48  1  0
 22 49  1  0
 23 50  1  0
 24 51  1  0
 27 52  1  0
 28 53  1  0
 31 54  1  0
M  CHG  1  13  -1
M  END
>  <meeko>  (389) 
{"free_energy": -4.85, "intermolecular_energy": -7.23, "internal_energy": -1.72, "cluster_size": 30, "cluster_id": 91, "rank_in_cluster": 14}

$$$$

     RDKit          3D

 54 57  0  0  0  0  0  0  0  0999 V2000
    8.7730   36.2420   11.9270 C   0  0  0  0  0  0  0  0  0  0  0  0
    8.9000   37.7260   11.5740 C   0  0  0  0  0  0  0  0  0  0  0  0
    9.2850   38.4500   12.7320 O   0  0  0  0  0  0  0  0  0  0  0  0
   10.4320   38.1390   13.3730 C   0  0  0  0  0  0  0  0  0  0  0  0
   11.1530   37.1930   13.0520 O   0  0  0  0  0  0  0  0  0  0  0  0
   10.6680   39.0380   14.4220 N   0  0  0  0  0  0  0  0  0  0  0  0
   10.4800   40.4840   14.2670 C   0  0  0  0  0  0  0  0  0  0  0  0
   11.1460   38.5730   15.7310 C   0  0  0  0  0  0  0  0  0  0  0  0
   10.1600   37.6490   16.4050 C   0  0  0  0  0  0  0  0  0  0  0  0
    9.2400   37.9380   17.3980 C   0  0  0  0  0  0  0  0  0  0  0  0
    8.9320   39.2440   18.0610 C   0  0  0  0  0  0  0  0  0  0  0  0
    8.7330   39.2580   19.2950 O   0  0  0  0  0  0  0  0  0  0  0  0
    8.8550   40.2960   17.3900 O   0  0  0  0  0  1  0  0  0  0  0  0
    8.5770   36.7480   17.7650 N   0  0  0  0  0  0  0  0  0  0  0  0
    7.5200   36.5650   18.7630 C   0  0  0  0  0  0  0  0  0  0  0  0
    6.0940   36.7760   18.2380 C   0  0  0  0  0  0  0  0  0  0  0  0
    5.6020   36.0170   17.1460 C   0  0  0  0  0  0  0  0  0  0  0  0
    4.2970   36.2070   16.6620 C   0  0  0  0  0  0  0  0  0  0  0  0
    3.4580   37.1630   17.2590 C   0  0  0  0  0  0  0  0  0  0  0  0
    3.9240   37.9300   18.3430 C   0  0  0  0  0  0  0  0  0  0  0  0
    3.0680   38.8850   18.9300 C   0  0  0  0  0  0  0  0  0  0  0  0
    3.5120   39.6630   20.0140 C   0  0  0  0  0  0  0  0  0  0  0  0
    4.8150   39.4870   20.5140 C   0  0  0  0  0  0  0  0  0  0  0  0
    5.6740   38.5360   19.9320 C   0  0  0  0  0  0  0  0  0  0  0  0
    5.2430   37.7430   18.8400 C   0  0  0  0  0  0  0  0  0  0  0  0
    9.0740   35.6950   17.0070 C   0  0  0  0  0  0  0  0  0  0  0  0
    8.7670   34.3190   16.9940 C   0  0  0  0  0  0  0  0  0  0  0  0
    9.4290   33.4610   16.1010 C   0  0  0  0  0  0  0  0  0  0  0  0
   10.3950   33.9820   15.2220 C   0  0  0  0  0  0  0  0  0  0  0  0
   11.0350   33.1600   14.3560 F   0  0  0  0  0  0  0  0  0  0  0  0
   10.7000   35.3560   15.2440 C   0  0  0  0  0  0  0  0  0  0  0  0
   10.0540   36.2440   16.1370 C   0  0  0  0  0  0  0  0  0  0  0  0
    8.7630   36.1248   13.0207 H   0  0  0  0  0  0  0  0  0  0  0  0
    7.8375   35.8439   11.5070 H   0  0  0  0  0  0  0  0  0  0  0  0
    9.6273   35.6908   11.5070 H   0  0  0  0  0  0  0  0  0  0  0  0
    9.6612   37.8539   10.7902 H   0  0  0  0  0  0  0  0  0  0  0  0
    7.9337   38.1025   11.2072 H   0  0  0  0  0  0  0  0  0  0  0  0
   10.4189   40.9543   15.2595 H   0  0  0  0  0  0  0  0  0  0  0  0
   11.3307   40.9070   13.7126 H   0  0  0  0  0  0  0  0  0  0  0  0
    9.5494   40.6754   13.7126 H   0  0  0  0  0  0  0  0  0  0  0  0
   12.0955   38.0357   15.5906 H   0  0  0  0  0  0  0  0  0  0  0  0
   11.2756   39.4552   16.3752 H   0  0  0  0  0  0  0  0  0  0  0  0
    7.5923   35.5392   19.1535 H   0  0  0  0  0  0  0  0  0  0  0  0
    7.6836   37.3352   19.5312 H   0  0  0  0  0  0  0  0  0  0  0  0
    6.2522   35.2679   16.6705 H   0  0  0  0  0  0  0  0  0  0  0  0
    3.9318   35.6072   15.8153 H   0  0  0  0  0  0  0  0  0  0  0  0
    2.4365   37.3120   16.8789 H   0  0  0  0  0  0  0  0  0  0  0  0
    2.0492   39.0217   18.5384 H   0  0  0  0  0  0  0  0  0  0  0  0
    2.8422   40.4072   20.4697 H   0  0  0  0  0  0  0  0  0  0  0  0
    5.1636   40.0944   21.3623 H   0  0  0  0  0  0  0  0  0  0  0  0
    6.6915   38.4070   20.3295 H   0  0  0  0  0  0  0  0  0  0  0  0
    8.0093   33.9177   17.6831 H   0  0  0  0  0  0  0  0  0  0  0  0
    9.1931   32.3867   16.0892 H   0  0  0  0  0  0  0  0  0  0  0  0
   11.4583   35.7489   14.5508 H   0  0  0  0  0  0  0  0  0  0  0  0
  1  2  1  0
  2  3  1  0
  3  4  1  0
  4  5  2  0
  4  6  1  0
  6  7  1  0
  6  8  1  0
  8  9  1  0
  9 10  2  0
 10 11  1  0
 11 12  2  0
 11 13  1  0
 10 14  1  0
 14 15  1  0
 15 16  1  0
 16 17  2  0
 17 18  1  0
 18 19  2  0
 19 20  1  0
 20 21  2  0
 21 22  1  0
 22 23  2  0
 23 24  1  0
 24 25  2  0
 14 26  1  0
 26 27  2  0
 27 28  1  0
 28 29  2  0
 29 30  1  0
 29 31  1  0
 31 32  2  0
 32  9  1  0
 25 16  1  0
 32 26  1  0
 25 20  1  0
  1 33  1  0
  1 34  1  0
  1 35  1  0
  2 36  1  0
  2 37  1  0
  7 38  1  0
  7 39  1  0
  7 40  1  0
  8 41  1  0
  8 42  1  0
 15 43  1  0
 15 44  1  0
 17 45  1  0
 18 46  1  0
 19 47  1  0
 21 48  1  0
 22 49  1  0
 23 50  1  0
 24 51  1  0
 27 52  1  0
 28 53  1  0
 31 54  1  0
M  CHG  1  13  -1
M  END
>  <meeko>  (390) 
{"free_energy": -6.12, "intermolecular_energy": -8.51, "internal_energy": -2.03, "cluster_size": 49, "cluster_id": 27, "rank_in_cluster": 11}

$$$$

     RDKit          3D

 54 57  0  0  0  0  0  0  0  0999 V2000
   13.4560   41.5370    7.2260 C   0  0  0  0  0  0  0  0  0  0  0  0
   14.2470   41.4730    8.5350 C   0  0  0  0  0  0  0  0  0  0  0  0
   14.4720   40.1150    8.8790 O   0  0  0  0  0  0  0  0  0  0  0  0
   13.6490   39.4920    9.7480 C   0  0  0  0  0  0  0  0  0  0  0  0
   12.7840   38.6850    9.4030 O   0  0  0  0  0  0  0  0  0  0  0  0
   13.9290   39.8910   11.0620 N   0  0  0  0  0  0  0  0  0  0  0  0
   15.2620   39.7420   11.6550 C   0  0  0  0  0  0  0  0  0  0  0  0
   12.8830   40.4550   11.9260 C   0  0  0  0  0  0  0  0  0  0  0  0
   11.5880   39.6830   11.8350 C   0  0  0  0  0  0  0  0  0  0  0  0
   10.5550   39.8270   10.9260 C   0  0  0  0  0  0  0  0  0  0  0  0
   10.4350   40.7550    9.7580 C   0  0  0  0  0  0  0  0  0  0  0  0
   11.3720   41.5480    9.5220 O   0  0  0  0  0  0  0  0  0  0  0  0
    9.4080   40.7500    9.0440 O   0  0  0  0  0  1  0  0  0  0  0  0
    9.5190   38.9320   11.2690 N   0  0  0  0  0  0  0  0  0  0  0  0
    8.2360   38.7210   10.5920 C   0  0  0  0  0  0  0  0  0  0  0  0
    8.1570   37.4460    9.7430 C   0  0  0  0  0  0  0  0  0  0  0  0
    8.5940   36.2010   10.2600 C   0  0  0  0  0  0  0  0  0  0  0  0
    8.5230   35.0300    9.4860 C   0  0  0  0  0  0  0  0  0  0  0  0
    8.0150   35.0830    8.1780 C   0  0  0  0  0  0  0  0  0  0  0  0
    7.5760   36.3070    7.6410 C   0  0  0  0  0  0  0  0  0  0  0  0
    7.0690   36.3420    6.3250 C   0  0  0  0  0  0  0  0  0  0  0  0
    6.6250   37.5540    5.7680 C   0  0  0  0  0  0  0  0  0  0  0  0
    6.6870   38.7360    6.5270 C   0  0  0  0  0  0  0  0  0  0  0  0
    7.1930   38.7090    7.8410 C   0  0  0  0  0  0  0  0  0  0  0  0
    7.6440   37.4960    8.4180 C   0  0  0  0  0  0  0  0  0  0  0  0
    9.8900   38.2150   12.3990 C   0  0  0  0  0  0  0  0  0  0  0  0
    9.2200   37.2220   13.1440 C   0  0  0  0  0  0  0  0  0  0  0  0
    9.8430   36.6450   14.2630 C   0  0  0  0  0  0  0  0  0  0  0  0
   11.1340   37.0610   14.6320 C   0  0  0  0  0  0  0  0  0  0  0  0
   11.7420   36.5060   15.7070 F   0  0  0  0  0  0  0  0  0  0  0  0
   11.7960   38.0550   13.8860 C   0  0  0  0  0  0  0  0  0  0  0  0
   11.1900   38.6600   12.7570 C   0  0  0  0  0  0  0  0  0  0  0  0
   12.3826   41.6238    7.4501 H   0  0  0  0  0  0  0  0  0  0  0  0
   13.7809   42.4118    6.6436 H   0  0  0  0  0  0  0  0  0  0  0  0
   13.6361   40.6213    6.6436 H   0  0  0  0  0  0  0  0  0  0  0  0
   15.2123   41.9847    8.4068 H   0  0  0  0  0  0  0  0  0  0  0  0
   13.6769   41.9671    9.3355 H   0  0  0  0  0  0  0  0  0  0  0  0
   15.1785   39.7513   12.7518 H   0  0  0  0  0  0  0  0  0  0  0  0
   15.7039   38.7889   11.3290 H   0  0  0  0  0  0  0  0  0  0  0  0
   15.9034   40.5740   11.3290 H   0  0  0  0  0  0  0  0  0  0  0  0
   13.2351   40.4340   12.9679 H   0  0  0  0  0  0  0  0  0  0  0  0
   12.6865   41.4837   11.5896 H   0  0  0  0  0  0  0  0  0  0  0  0
    7.4490   38.6704   11.3589 H   0  0  0  0  0  0  0  0  0  0  0  0
    8.1116   39.5638    9.8961 H   0  0  0  0  0  0  0  0  0  0  0  0
    8.9950   36.1503   11.2830 H   0  0  0  0  0  0  0  0  0  0  0  0
    8.8653   34.0722    9.9048 H   0  0  0  0  0  0  0  0  0  0  0  0
    7.9602   34.1663    7.5724 H   0  0  0  0  0  0  0  0  0  0  0  0
    7.0209   35.4168    5.7320 H   0  0  0  0  0  0  0  0  0  0  0  0
    6.2303   37.5776    4.7415 H   0  0  0  0  0  0  0  0  0  0  0  0
    6.3391   39.6850    6.0930 H   0  0  0  0  0  0  0  0  0  0  0  0
    7.2386   39.6396    8.4257 H   0  0  0  0  0  0  0  0  0  0  0  0
    8.2105   36.8998   12.8489 H   0  0  0  0  0  0  0  0  0  0  0  0
    9.3232   35.8716   14.8475 H   0  0  0  0  0  0  0  0  0  0  0  0
   12.8065   38.3690   14.1865 H   0  0  0  0  0  0  0  0  0  0  0  0
  1  2  1  0
  2  3  1  0
  3  4  1  0
  4  5  2  0
  4  6  1  0
  6  7  1  0
  6  8  1  0
  8  9  1  0
  9 10  2  0
 10 11  1  0
 11 12  2  0
 11 13  1  0
 10 14  1  0
 14 15  1  0
 15 16  1  0
 16 17  2  0
 17 18  1  0
 18 19  2  0
 19 20  1  0
 20 21  2  0
 21 22  1  0
 22 23  2  0
 23 24  1  0
 24 25  2  0
 14 26  1  0
 26 27  2  0
 27 28  1  0
 28 29  2  0
 29 30  1  0
 29 31  1  0
 31 32  2  0
 32  9  1  0
 25 16  1  0
 32 26  1  0
 25 20  1  0
  1 33  1  0
  1 34  1  0
  1 35  1  0
  2 36  1  0
  2 37  1  0
  7 38  1  0
  7 39  1  0
  7 40  1  0
  8 41  1  0
  8 42  1  0
 15 43  1  0
 15 44  1  0
 17 45  1  0
 18 46  1  0
 19 47  1  0
 21 48  1  0
 22 49  1  0
 23 50  1  0
 24 51  1  0
 27 52  1  0
 28 53  1  0
 31 54  1  0
M  CHG  1  13  -1
M  END
>  <meeko>  (391) 
{"free_energy": -6.7, "intermolecular_energy": -9.09, "internal_energy": -1.92, "cluster_size": 292, "cluster_id": 10, "rank_in_cluster": 40}

$$$$

     RDKit          3D

 54 57  0  0  0  0  0  0  0  0999 V2000
   14.9540   39.0070    9.5400 C   0  0  0  0  0  0  0  0  0  0  0  0
   13.9970   38.9940   10.7340 C   0  0  0  0  0  0  0  0  0  0  0  0
   12.7920   38.3460   10.3590 O   0  0  0  0  0  0  0  0  0  0  0  0
   11.8190   39.0380    9.7280 C   0  0  0  0  0  0  0  0  0  0  0  0
   11.2090   38.6090    8.7470 O   0  0  0  0  0  0  0  0  0  0  0  0
   11.6170   40.2780   10.3480 N   0  0  0  0  0  0  0  0  0  0  0  0
   11.9590   41.5440    9.6920 C   0  0  0  0  0  0  0  0  0  0  0  0
   11.0730   40.3680   11.7100 C   0  0  0  0  0  0  0  0  0  0  0  0
   10.6780   39.0180   12.2590 C   0  0  0  0  0  0  0  0  0  0  0  0
   11.1570   38.3640   13.3800 C   0  0  0  0  0  0  0  0  0  0  0  0
   12.1710   38.8120   14.3850 C   0  0  0  0  0  0  0  0  0  0  0  0
   13.3470   38.4020   14.2750 O   0  0  0  0  0  0  0  0  0  0  0  0
   11.8440   39.5660   15.3270 O   0  0  0  0  0  1  0  0  0  0  0  0
   10.5410   37.0970   13.4660 N   0  0  0  0  0  0  0  0  0  0  0  0
   10.7270   36.0610   14.4850 C   0  0  0  0  0  0  0  0  0  0  0  0
   10.4880   36.5260   15.9280 C   0  0  0  0  0  0  0  0  0  0  0  0
   11.5720   36.9120   16.7550 C   0  0  0  0  0  0  0  0  0  0  0  0
   11.3570   37.3390   18.0770 C   0  0  0  0  0  0  0  0  0  0  0  0
   10.0530   37.3840   18.5980 C   0  0  0  0  0  0  0  0  0  0  0  0
    8.9610   37.0030   17.7960 C   0  0  0  0  0  0  0  0  0  0  0  0
    7.6580   37.0550   18.3360 C   0  0  0  0  0  0  0  0  0  0  0  0
    6.5520   36.6790   17.5540 C   0  0  0  0  0  0  0  0  0  0  0  0
    6.7460   36.2500   16.2280 C   0  0  0  0  0  0  0  0  0  0  0  0
    8.0430   36.1960   15.6840 C   0  0  0  0  0  0  0  0  0  0  0  0
    9.1690   36.5720   16.4580 C   0  0  0  0  0  0  0  0  0  0  0  0
    9.6670   36.9410   12.3980 C   0  0  0  0  0  0  0  0  0  0  0  0
    8.8300   35.8710   12.0170 C   0  0  0  0  0  0  0  0  0  0  0  0
    8.0250   35.9840   10.8710 C   0  0  0  0  0  0  0  0  0  0  0  0
    8.0580   37.1660   10.1120 C   0  0  0  0  0  0  0  0  0  0  0  0
    7.2810   37.2830    9.0080 F   0  0  0  0  0  0  0  0  0  0  0  0
    8.8990   38.2290   10.4960 C   0  0  0  0  0  0  0  0  0  0  0  0
    9.7260   38.1410   11.6410 C   0  0  0  0  0  0  0  0  0  0  0  0
   15.9924   39.0211    9.9026 H   0  0  0  0  0  0  0  0  0  0  0  0
   14.7909   38.1066    8.9296 H   0  0  0  0  0  0  0  0  0  0  0  0
   14.7665   39.9027    8.9296 H   0  0  0  0  0  0  0  0  0  0  0  0
   14.4609   38.4522   11.5714 H   0  0  0  0  0  0  0  0  0  0  0  0
   13.7800   40.0266   11.0449 H   0  0  0  0  0  0  0  0  0  0  0  0
   12.1655   42.3085   10.4555 H   0  0  0  0  0  0  0  0  0  0  0  0
   12.8511   41.4024    9.0642 H   0  0  0  0  0  0  0  0  0  0  0  0
   11.1170   41.8708    9.0642 H   0  0  0  0  0  0  0  0  0  0  0  0
   11.8371   40.8078   12.3679 H   0  0  0  0  0  0  0  0  0  0  0  0
   10.1689   40.9933   11.6709 H   0  0  0  0  0  0  0  0  0  0  0  0
   10.0272   35.2401   14.2698 H   0  0  0  0  0  0  0  0  0  0  0  0
   11.7829   35.7578   14.4287 H   0  0  0  0  0  0  0  0  0  0  0  0
   12.5968   36.8770   16.3567 H   0  0  0  0  0  0  0  0  0  0  0  0
   12.2101   37.6380   18.7038 H   0  0  0  0  0  0  0  0  0  0  0  0
    9.8855   37.7171   19.6329 H   0  0  0  0  0  0  0  0  0  0  0  0
    7.5074   37.3910   19.3726 H   0  0  0  0  0  0  0  0  0  0  0  0
    5.5376   36.7200   17.9775 H   0  0  0  0  0  0  0  0  0  0  0  0
    5.8814   35.9560   15.6147 H   0  0  0  0  0  0  0  0  0  0  0  0
    8.1842   35.8582   14.6467 H   0  0  0  0  0  0  0  0  0  0  0  0
    8.8077   34.9491   12.6167 H   0  0  0  0  0  0  0  0  0  0  0  0
    7.3723   35.1515   10.5696 H   0  0  0  0  0  0  0  0  0  0  0  0
    8.9132   39.1483    9.8921 H   0  0  0  0  0  0  0  0  0  0  0  0
  1  2  1  0
  2  3  1  0
  3  4  1  0
  4  5  2  0
  4  6  1  0
  6  7  1  0
  6  8  1  0
  8  9  1  0
  9 10  2  0
 10 11  1  0
 11 12  2  0
 11 13  1  0
 10 14  1  0
 14 15  1  0
 15 16  1  0
 16 17  2  0
 17 18  1  0
 18 19  2  0
 19 20  1  0
 20 21  2  0
 21 22  1  0
 22 23  2  0
 23 24  1  0
 24 25  2  0
 14 26  1  0
 26 27  2  0
 27 28  1  0
 28 29  2  0
 29 30  1  0
 29 31  1  0
 31 32  2  0
 32  9  1  0
 25 16  1  0
 32 26  1  0
 25 20  1  0
  1 33  1  0
  1 34  1  0
  1 35  1  0
  2 36  1  0
  2 37  1  0
  7 38  1  0
  7 39  1  0
  7 40  1  0
  8 41  1  0
  8 42  1  0
 15 43  1  0
 15 44  1  0
 17 45  1  0
 18 46  1  0
 19 47  1  0
 21 48  1  0
 22 49  1  0
 23 50  1  0
 24 51  1  0
 27 52  1  0
 28 53  1  0
 31 54  1  0
M  CHG  1  13  -1
M  END
>  <meeko>  (392) 
{"free_energy": -5.44, "intermolecular_energy": -7.83, "internal_energy": -1.92, "cluster_size": 191, "cluster_id": 13, "rank_in_cluster": 110}

$$$$

     RDKit          3D

 54 57  0  0  0  0  0  0  0  0999 V2000
    7.7320   37.4290    7.8480 C   0  0  0  0  0  0  0  0  0  0  0  0
    8.1380   38.1080    9.1590 C   0  0  0  0  0  0  0  0  0  0  0  0
    8.9430   39.2380    8.8690 O   0  0  0  0  0  0  0  0  0  0  0  0
   10.1750   39.3490    9.4110 C   0  0  0  0  0  0  0  0  0  0  0  0
   11.1640   38.7580    8.9720 O   0  0  0  0  0  0  0  0  0  0  0  0
   10.1520   40.2160   10.5100 N   0  0  0  0  0  0  0  0  0  0  0  0
   11.0610   41.3630   10.6180 C   0  0  0  0  0  0  0  0  0  0  0  0
    9.2280   40.0010   11.6320 C   0  0  0  0  0  0  0  0  0  0  0  0
    9.9270   39.4500   12.8520 C   0  0  0  0  0  0  0  0  0  0  0  0
   10.1470   38.1290   13.2010 C   0  0  0  0  0  0  0  0  0  0  0  0
    9.7930   36.8750   12.4650 C   0  0  0  0  0  0  0  0  0  0  0  0
    8.5860   36.5930   12.3080 O   0  0  0  0  0  0  0  0  0  0  0  0
   10.6870   36.1160   12.0330 O   0  0  0  0  0  1  0  0  0  0  0  0
   10.7840   38.0920   14.4600 N   0  0  0  0  0  0  0  0  0  0  0  0
   11.2210   36.9210   15.2260 C   0  0  0  0  0  0  0  0  0  0  0  0
   10.1380   35.8590   15.4540 C   0  0  0  0  0  0  0  0  0  0  0  0
   10.2140   34.5950   14.8180 C   0  0  0  0  0  0  0  0  0  0  0  0
    9.2240   33.6190   15.0240 C   0  0  0  0  0  0  0  0  0  0  0  0
    8.1370   33.8900   15.8700 C   0  0  0  0  0  0  0  0  0  0  0  0
    8.0370   35.1390   16.5120 C   0  0  0  0  0  0  0  0  0  0  0  0
    6.9370   35.3940   17.3580 C   0  0  0  0  0  0  0  0  0  0  0  0
    6.8170   36.6340   18.0100 C   0  0  0  0  0  0  0  0  0  0  0  0
    7.7980   37.6230   17.8170 C   0  0  0  0  0  0  0  0  0  0  0  0
    8.8980   37.3750   16.9730 C   0  0  0  0  0  0  0  0  0  0  0  0
    9.0350   36.1310   16.3090 C   0  0  0  0  0  0  0  0  0  0  0  0
   10.9720   39.3910   14.9160 C   0  0  0  0  0  0  0  0  0  0  0  0
   11.5390   39.8970   16.1040 C   0  0  0  0  0  0  0  0  0  0  0  0
   11.6110   41.2850   16.3100 C   0  0  0  0  0  0  0  0  0  0  0  0
   11.1180   42.1610   15.3280 C   0  0  0  0  0  0  0  0  0  0  0  0
   11.1880   43.5000   15.5190 F   0  0  0  0  0  0  0  0  0  0  0  0
   10.5490   41.6480   14.1460 C   0  0  0  0  0  0  0  0  0  0  0  0
   10.4570   40.2550   13.9130 C   0  0  0  0  0  0  0  0  0  0  0  0
    7.1791   36.5043    8.0699 H   0  0  0  0  0  0  0  0  0  0  0  0
    7.0918   38.1084    7.2661 H   0  0  0  0  0  0  0  0  0  0  0  0
    8.6335   37.1865    7.2661 H   0  0  0  0  0  0  0  0  0  0  0  0
    7.2365   38.4281    9.7020 H   0  0  0  0  0  0  0  0  0  0  0  0
    8.7051   37.4003    9.7815 H   0  0  0  0  0  0  0  0  0  0  0  0
   11.2407   41.5898   11.6793 H   0  0  0  0  0  0  0  0  0  0  0  0
   12.0157   41.1217   10.1278 H   0  0  0  0  0  0  0  0  0  0  0  0
   10.6079   42.2373   10.1278 H   0  0  0  0  0  0  0  0  0  0  0  0
    8.7615   40.9617   11.8952 H   0  0  0  0  0  0  0  0  0  0  0  0
    8.4765   39.2638   11.3128 H   0  0  0  0  0  0  0  0  0  0  0  0
   12.0538   36.4492   14.6840 H   0  0  0  0  0  0  0  0  0  0  0  0
   11.5049   37.2916   16.2220 H   0  0  0  0  0  0  0  0  0  0  0  0
   11.0615   34.3742   14.1524 H   0  0  0  0  0  0  0  0  0  0  0  0
    9.3008   32.6430   14.5225 H   0  0  0  0  0  0  0  0  0  0  0  0
    7.3626   33.1257   16.0315 H   0  0  0  0  0  0  0  0  0  0  0  0
    6.1703   34.6197   17.5081 H   0  0  0  0  0  0  0  0  0  0  0  0
    5.9584   36.8299   18.6691 H   0  0  0  0  0  0  0  0  0  0  0  0
    7.7060   38.5934   18.3268 H   0  0  0  0  0  0  0  0  0  0  0  0
    9.6591   38.1558   16.8278 H   0  0  0  0  0  0  0  0  0  0  0  0
   11.9243   39.2060   16.8682 H   0  0  0  0  0  0  0  0  0  0  0  0
   12.0512   41.6841   17.2357 H   0  0  0  0  0  0  0  0  0  0  0  0
   10.1673   42.3462   13.3865 H   0  0  0  0  0  0  0  0  0  0  0  0
  1  2  1  0
  2  3  1  0
  3  4  1  0
  4  5  2  0
  4  6  1  0
  6  7  1  0
  6  8  1  0
  8  9  1  0
  9 10  2  0
 10 11  1  0
 11 12  2  0
 11 13  1  0
 10 14  1  0
 14 15  1  0
 15 16  1  0
 16 17  2  0
 17 18  1  0
 18 19  2  0
 19 20  1  0
 20 21  2  0
 21 22  1  0
 22 23  2  0
 23 24  1  0
 24 25  2  0
 14 26  1  0
 26 27  2  0
 27 28  1  0
 28 29  2  0
 29 30  1  0
 29 31  1  0
 31 32  2  0
 32  9  1  0
 25 16  1  0
 32 26  1  0
 25 20  1  0
  1 33  1  0
  1 34  1  0
  1 35  1  0
  2 36  1  0
  2 37  1  0
  7 38  1  0
  7 39  1  0
  7 40  1  0
  8 41  1  0
  8 42  1  0
 15 43  1  0
 15 44  1  0
 17 45  1  0
 18 46  1  0
 19 47  1  0
 21 48  1  0
 22 49  1  0
 23 50  1  0
 24 51  1  0
 27 52  1  0
 28 53  1  0
 31 54  1  0
M  CHG  1  13  -1
M  END
>  <meeko>  (393) 
{"free_energy": -5.81, "intermolecular_energy": -8.19, "internal_energy": -2.14, "cluster_size": 48, "cluster_id": 59, "rank_in_cluster": 8}

$$$$

     RDKit          3D

 54 57  0  0  0  0  0  0  0  0999 V2000
    9.3790   43.6990   14.9130 C   0  0  0  0  0  0  0  0  0  0  0  0
    8.9650   43.3650   16.3480 C   0  0  0  0  0  0  0  0  0  0  0  0
    9.2630   42.0040   16.6150 O   0  0  0  0  0  0  0  0  0  0  0  0
   10.4560   41.6650   17.1480 C   0  0  0  0  0  0  0  0  0  0  0  0
   11.2860   42.4900   17.5310 O   0  0  0  0  0  0  0  0  0  0  0  0
   10.5920   40.2710   17.2020 N   0  0  0  0  0  0  0  0  0  0  0  0
   11.8320   39.6250   17.6470 C   0  0  0  0  0  0  0  0  0  0  0  0
    9.5000   39.3830   16.7830 C   0  0  0  0  0  0  0  0  0  0  0  0
    9.8510   38.5880   15.5470 C   0  0  0  0  0  0  0  0  0  0  0  0
   10.3790   39.0360   14.3490 C   0  0  0  0  0  0  0  0  0  0  0  0
   10.7860   40.4180   13.9440 C   0  0  0  0  0  0  0  0  0  0  0  0
   11.9610   40.7860   14.1620 O   0  0  0  0  0  0  0  0  0  0  0  0
    9.9620   41.1950   13.4150 O   0  0  0  0  0  1  0  0  0  0  0  0
   10.4800   37.9450   13.4600 N   0  0  0  0  0  0  0  0  0  0  0  0
   10.9900   37.9330   12.0860 C   0  0  0  0  0  0  0  0  0  0  0  0
   10.0060   38.4520   11.0290 C   0  0  0  0  0  0  0  0  0  0  0  0
    9.8690   39.8410   10.7840 C   0  0  0  0  0  0  0  0  0  0  0  0
    8.9690   40.3200    9.8170 C   0  0  0  0  0  0  0  0  0  0  0  0
    8.1880   39.4180    9.0770 C   0  0  0  0  0  0  0  0  0  0  0  0
    8.3040   38.0340    9.3030 C   0  0  0  0  0  0  0  0  0  0  0  0
    7.5110   37.1430    8.5510 C   0  0  0  0  0  0  0  0  0  0  0  0
    7.6110   35.7560    8.7600 C   0  0  0  0  0  0  0  0  0  0  0  0
    8.5060   35.2560    9.7230 C   0  0  0  0  0  0  0  0  0  0  0  0
    9.3010   36.1410   10.4770 C   0  0  0  0  0  0  0  0  0  0  0  0
    9.2130   37.5410   10.2790 C   0  0  0  0  0  0  0  0  0  0  0  0
   10.0160   36.7970   14.0900 C   0  0  0  0  0  0  0  0  0  0  0  0
    9.8910   35.4650   13.6430 C   0  0  0  0  0  0  0  0  0  0  0  0
    9.3870   34.4800   14.5090 C   0  0  0  0  0  0  0  0  0  0  0  0
    9.0110   34.8290   15.8180 C   0  0  0  0  0  0  0  0  0  0  0  0
    8.5290   33.8840   16.6590 F   0  0  0  0  0  0  0  0  0  0  0  0
    9.1360   36.1620   16.2560 C   0  0  0  0  0  0  0  0  0  0  0  0
    9.6340   37.1780   15.4040 C   0  0  0  0  0  0  0  0  0  0  0  0
   10.2350   44.3896   14.9297 H   0  0  0  0  0  0  0  0  0  0  0  0
    9.6637   42.7747   14.3890 H   0  0  0  0  0  0  0  0  0  0  0  0
    8.5358   44.1728   14.3890 H   0  0  0  0  0  0  0  0  0  0  0  0
    9.5181   44.0071   17.0493 H   0  0  0  0  0  0  0  0  0  0  0  0
    7.8856   43.5378   16.4708 H   0  0  0  0  0  0  0  0  0  0  0  0
   11.8629   39.6089   18.7464 H   0  0  0  0  0  0  0  0  0  0  0  0
   11.8664   38.5944   17.2641 H   0  0  0  0  0  0  0  0  0  0  0  0
   12.6963   40.1874   17.2641 H   0  0  0  0  0  0  0  0  0  0  0  0
    9.2783   38.6836   17.6026 H   0  0  0  0  0  0  0  0  0  0  0  0
    8.6285   40.0102   16.5440 H   0  0  0  0  0  0  0  0  0  0  0  0
   11.8925   38.5608   12.0507 H   0  0  0  0  0  0  0  0  0  0  0  0
   11.1838   36.8792   11.8372 H   0  0  0  0  0  0  0  0  0  0  0  0
   10.4764   40.5550   11.3595 H   0  0  0  0  0  0  0  0  0  0  0  0
    8.8764   41.4017    9.6398 H   0  0  0  0  0  0  0  0  0  0  0  0
    7.4844   39.7937    8.3195 H   0  0  0  0  0  0  0  0  0  0  0  0
    6.8113   37.5345    7.7978 H   0  0  0  0  0  0  0  0  0  0  0  0
    6.9908   35.0637    8.1718 H   0  0  0  0  0  0  0  0  0  0  0  0
    8.5852   34.1713    9.8876 H   0  0  0  0  0  0  0  0  0  0  0  0
    9.9980   35.7407   11.2280 H   0  0  0  0  0  0  0  0  0  0  0  0
   10.1876   35.1978   12.6180 H   0  0  0  0  0  0  0  0  0  0  0  0
    9.2870   33.4402   14.1643 H   0  0  0  0  0  0  0  0  0  0  0  0
    8.8400   36.4198   17.2836 H   0  0  0  0  0  0  0  0  0  0  0  0
  1  2  1  0
  2  3  1  0
  3  4  1  0
  4  5  2  0
  4  6  1  0
  6  7  1  0
  6  8  1  0
  8  9  1  0
  9 10  2  0
 10 11  1  0
 11 12  2  0
 11 13  1  0
 10 14  1  0
 14 15  1  0
 15 16  1  0
 16 17  2  0
 17 18  1  0
 18 19  2  0
 19 20  1  0
 20 21  2  0
 21 22  1  0
 22 23  2  0
 23 24  1  0
 24 25  2  0
 14 26  1  0
 26 27  2  0
 27 28  1  0
 28 29  2  0
 29 30  1  0
 29 31  1  0
 31 32  2  0
 32  9  1  0
 25 16  1  0
 32 26  1  0
 25 20  1  0
  1 33  1  0
  1 34  1  0
  1 35  1  0
  2 36  1  0
  2 37  1  0
  7 38  1  0
  7 39  1  0
  7 40  1  0
  8 41  1  0
  8 42  1  0
 15 43  1  0
 15 44  1  0
 17 45  1  0
 18 46  1  0
 19 47  1  0
 21 48  1  0
 22 49  1  0
 23 50  1  0
 24 51  1  0
 27 52  1  0
 28 53  1  0
 31 54  1  0
M  CHG  1  13  -1
M  END
>  <meeko>  (394) 
{"free_energy": -6.08, "intermolecular_energy": -8.47, "internal_energy": -2.04, "cluster_size": 326, "cluster_id": 11, "rank_in_cluster": 120}

$$$$

     RDKit          3D

 54 57  0  0  0  0  0  0  0  0999 V2000
   15.3650   34.6440    9.1820 C   0  0  0  0  0  0  0  0  0  0  0  0
   14.9340   35.7230   10.1790 C   0  0  0  0  0  0  0  0  0  0  0  0
   15.4780   36.9710    9.7810 O   0  0  0  0  0  0  0  0  0  0  0  0
   15.5750   37.9820   10.6710 C   0  0  0  0  0  0  0  0  0  0  0  0
   16.4330   38.0280   11.5530 O   0  0  0  0  0  0  0  0  0  0  0  0
   14.5820   38.9410   10.4350 N   0  0  0  0  0  0  0  0  0  0  0  0
   14.7470   40.3470   10.8220 C   0  0  0  0  0  0  0  0  0  0  0  0
   13.3040   38.5770    9.8090 C   0  0  0  0  0  0  0  0  0  0  0  0
   12.2070   38.3700   10.8260 C   0  0  0  0  0  0  0  0  0  0  0  0
   12.2350   38.6010   12.1900 C   0  0  0  0  0  0  0  0  0  0  0  0
   13.3350   39.1510   13.0420 C   0  0  0  0  0  0  0  0  0  0  0  0
   14.2840   38.4010   13.3550 O   0  0  0  0  0  0  0  0  0  0  0  0
   13.2950   40.3330   13.4480 O   0  0  0  0  0  1  0  0  0  0  0  0
   11.0000   38.2020   12.7440 N   0  0  0  0  0  0  0  0  0  0  0  0
   10.5660   38.2670   14.1430 C   0  0  0  0  0  0  0  0  0  0  0  0
   11.2050   37.2200   15.0660 C   0  0  0  0  0  0  0  0  0  0  0  0
   12.3830   37.5180   15.7950 C   0  0  0  0  0  0  0  0  0  0  0  0
   12.9710   36.5630   16.6420 C   0  0  0  0  0  0  0  0  0  0  0  0
   12.3930   35.2910   16.7730 C   0  0  0  0  0  0  0  0  0  0  0  0
   11.2240   34.9700   16.0580 C   0  0  0  0  0  0  0  0  0  0  0  0
   10.6570   33.6860   16.2030 C   0  0  0  0  0  0  0  0  0  0  0  0
    9.4890   33.3440   15.4980 C   0  0  0  0  0  0  0  0  0  0  0  0
    8.8850   34.2860   14.6470 C   0  0  0  0  0  0  0  0  0  0  0  0
    9.4460   35.5690   14.4980 C   0  0  0  0  0  0  0  0  0  0  0  0
   10.6220   35.9310   15.2000 C   0  0  0  0  0  0  0  0  0  0  0  0
   10.1810   37.7140   11.7340 C   0  0  0  0  0  0  0  0  0  0  0  0
    8.8750   37.1840   11.7570 C   0  0  0  0  0  0  0  0  0  0  0  0
    8.2680   36.7640   10.5610 C   0  0  0  0  0  0  0  0  0  0  0  0
    8.9680   36.8760    9.3480 C   0  0  0  0  0  0  0  0  0  0  0  0
    8.3880   36.4770    8.1910 F   0  0  0  0  0  0  0  0  0  0  0  0
   10.2750   37.4030    9.3340 C   0  0  0  0  0  0  0  0  0  0  0  0
   10.9150   37.8280   10.5230 C   0  0  0  0  0  0  0  0  0  0  0  0
   15.7187   33.7584    9.7303 H   0  0  0  0  0  0  0  0  0  0  0  0
   14.5089   34.3660    8.5497 H   0  0  0  0  0  0  0  0  0  0  0  0
   16.1770   35.0323    8.5497 H   0  0  0  0  0  0  0  0  0  0  0  0
   13.8362   35.7894   10.1973 H   0  0  0  0  0  0  0  0  0  0  0  0
   15.2996   35.4645   11.1837 H   0  0  0  0  0  0  0  0  0  0  0  0
   14.7563   40.4267   11.9191 H   0  0  0  0  0  0  0  0  0  0  0  0
   15.6962   40.7294   10.4185 H   0  0  0  0  0  0  0  0  0  0  0  0
   13.9121   40.9388   10.4185 H   0  0  0  0  0  0  0  0  0  0  0  0
   13.0035   39.3830    9.1234 H   0  0  0  0  0  0  0  0  0  0  0  0
   13.4498   37.6276    9.2729 H   0  0  0  0  0  0  0  0  0  0  0  0
   10.8164   39.2647   14.5327 H   0  0  0  0  0  0  0  0  0  0  0  0
    9.4858   38.0594   14.1414 H   0  0  0  0  0  0  0  0  0  0  0  0
   12.8442   38.5118   15.6965 H   0  0  0  0  0  0  0  0  0  0  0  0
   13.8842   36.8126   17.2022 H   0  0  0  0  0  0  0  0  0  0  0  0
   12.8542   34.5437   17.4355 H   0  0  0  0  0  0  0  0  0  0  0  0
   11.1301   32.9500   16.8697 H   0  0  0  0  0  0  0  0  0  0  0  0
    9.0493   32.3422   15.6122 H   0  0  0  0  0  0  0  0  0  0  0  0
    7.9711   34.0200   14.0957 H   0  0  0  0  0  0  0  0  0  0  0  0
    8.9657   36.2983   13.8290 H   0  0  0  0  0  0  0  0  0  0  0  0
    8.3317   37.0993   12.7097 H   0  0  0  0  0  0  0  0  0  0  0  0
    7.2492   36.3494   10.5746 H   0  0  0  0  0  0  0  0  0  0  0  0
   10.8104   37.4860    8.3767 H   0  0  0  0  0  0  0  0  0  0  0  0
  1  2  1  0
  2  3  1  0
  3  4  1  0
  4  5  2  0
  4  6  1  0
  6  7  1  0
  6  8  1  0
  8  9  1  0
  9 10  2  0
 10 11  1  0
 11 12  2  0
 11 13  1  0
 10 14  1  0
 14 15  1  0
 15 16  1  0
 16 17  2  0
 17 18  1  0
 18 19  2  0
 19 20  1  0
 20 21  2  0
 21 22  1  0
 22 23  2  0
 23 24  1  0
 24 25  2  0
 14 26  1  0
 26 27  2  0
 27 28  1  0
 28 29  2  0
 29 30  1  0
 29 31  1  0
 31 32  2  0
 32  9  1  0
 25 16  1  0
 32 26  1  0
 25 20  1  0
  1 33  1  0
  1 34  1  0
  1 35  1  0
  2 36  1  0
  2 37  1  0
  7 38  1  0
  7 39  1  0
  7 40  1  0
  8 41  1  0
  8 42  1  0
 15 43  1  0
 15 44  1  0
 17 45  1  0
 18 46  1  0
 19 47  1  0
 21 48  1  0
 22 49  1  0
 23 50  1  0
 24 51  1  0
 27 52  1  0
 28 53  1  0
 31 54  1  0
M  CHG  1  13  -1
M  END
>  <meeko>  (395) 
{"free_energy": -6.12, "intermolecular_energy": -8.5, "internal_energy": -1.68, "cluster_size": 191, "cluster_id": 13, "rank_in_cluster": 39}

$$$$

     RDKit          3D

 54 57  0  0  0  0  0  0  0  0999 V2000
   15.7060   40.0410    7.6100 C   0  0  0  0  0  0  0  0  0  0  0  0
   14.5610   40.0610    8.6260 C   0  0  0  0  0  0  0  0  0  0  0  0
   14.5700   41.3010    9.3150 O   0  0  0  0  0  0  0  0  0  0  0  0
   13.5250   41.6470   10.0970 C   0  0  0  0  0  0  0  0  0  0  0  0
   12.5810   42.3330    9.7020 O   0  0  0  0  0  0  0  0  0  0  0  0
   13.6780   41.1150   11.3840 N   0  0  0  0  0  0  0  0  0  0  0  0
   14.9010   40.4210   11.8020 C   0  0  0  0  0  0  0  0  0  0  0  0
   12.5990   41.2020   12.3770 C   0  0  0  0  0  0  0  0  0  0  0  0
   11.2330   41.0350   11.7540 C   0  0  0  0  0  0  0  0  0  0  0  0
   10.8400   40.1750   10.7440 C   0  0  0  0  0  0  0  0  0  0  0  0
   11.6350   39.1440   10.0060 C   0  0  0  0  0  0  0  0  0  0  0  0
   11.5420   39.0930    8.7600 O   0  0  0  0  0  0  0  0  0  0  0  0
   12.3620   38.3380   10.6250 O   0  0  0  0  0  1  0  0  0  0  0  0
    9.4820   40.4160   10.4440 N   0  0  0  0  0  0  0  0  0  0  0  0
    8.6350   39.7440    9.4550 C   0  0  0  0  0  0  0  0  0  0  0  0
    8.4560   38.2360    9.6770 C   0  0  0  0  0  0  0  0  0  0  0  0
    8.7760   37.6430   10.9240 C   0  0  0  0  0  0  0  0  0  0  0  0
    8.6140   36.2630   11.1320 C   0  0  0  0  0  0  0  0  0  0  0  0
    8.1310   35.4480   10.0950 C   0  0  0  0  0  0  0  0  0  0  0  0
    7.8080   36.0130    8.8470 C   0  0  0  0  0  0  0  0  0  0  0  0
    7.3250   35.1800    7.8170 C   0  0  0  0  0  0  0  0  0  0  0  0
    6.9960   35.7220    6.5620 C   0  0  0  0  0  0  0  0  0  0  0  0
    7.1500   37.1010    6.3340 C   0  0  0  0  0  0  0  0  0  0  0  0
    7.6330   37.9390    7.3580 C   0  0  0  0  0  0  0  0  0  0  0  0
    7.9680   37.4090    8.6290 C   0  0  0  0  0  0  0  0  0  0  0  0
    9.0060   41.4330   11.2620 C   0  0  0  0  0  0  0  0  0  0  0  0
    7.7420   42.0520   11.3530 C   0  0  0  0  0  0  0  0  0  0  0  0
    7.5280   43.0700   12.2960 C   0  0  0  0  0  0  0  0  0  0  0  0
    8.5750   43.4650   13.1460 C   0  0  0  0  0  0  0  0  0  0  0  0
    8.3740   44.4440   14.0600 F   0  0  0  0  0  0  0  0  0  0  0  0
    9.8360   42.8450   13.0470 C   0  0  0  0  0  0  0  0  0  0  0  0
   10.0850   41.8200   12.1010 C   0  0  0  0  0  0  0  0  0  0  0  0
   16.6684   40.0242    8.1424 H   0  0  0  0  0  0  0  0  0  0  0  0
   15.6205   39.1442    6.9788 H   0  0  0  0  0  0  0  0  0  0  0  0
   15.6518   40.9402    6.9788 H   0  0  0  0  0  0  0  0  0  0  0  0
   13.6018   39.9385    8.1017 H   0  0  0  0  0  0  0  0  0  0  0  0
   14.6902   39.2382    9.3445 H   0  0  0  0  0  0  0  0  0  0  0  0
   14.9497   40.3934   12.9006 H   0  0  0  0  0  0  0  0  0  0  0  0
   14.8919   39.3935   11.4094 H   0  0  0  0  0  0  0  0  0  0  0  0
   15.7785   40.9558   11.4094 H   0  0  0  0  0  0  0  0  0  0  0  0
   12.7445   40.4115   13.1280 H   0  0  0  0  0  0  0  0  0  0  0  0
   12.6411   42.2019   12.8336 H   0  0  0  0  0  0  0  0  0  0  0  0
    7.6407   40.2138    9.4808 H   0  0  0  0  0  0  0  0  0  0  0  0
    9.1436   39.8554    8.4860 H   0  0  0  0  0  0  0  0  0  0  0  0
    9.1570   38.2729   11.7414 H   0  0  0  0  0  0  0  0  0  0  0  0
    8.8655   35.8207   12.1072 H   0  0  0  0  0  0  0  0  0  0  0  0
    8.0051   34.3675   10.2583 H   0  0  0  0  0  0  0  0  0  0  0  0
    7.2050   34.1013    7.9961 H   0  0  0  0  0  0  0  0  0  0  0  0
    6.6192   35.0692    5.7608 H   0  0  0  0  0  0  0  0  0  0  0  0
    6.8925   37.5266    5.3529 H   0  0  0  0  0  0  0  0  0  0  0  0
    7.7514   39.0162    7.1692 H   0  0  0  0  0  0  0  0  0  0  0  0
    6.9253   41.7378   10.6864 H   0  0  0  0  0  0  0  0  0  0  0  0
    6.5442   43.5566   12.3692 H   0  0  0  0  0  0  0  0  0  0  0  0
   10.6459   43.1639   13.7195 H   0  0  0  0  0  0  0  0  0  0  0  0
  1  2  1  0
  2  3  1  0
  3  4  1  0
  4  5  2  0
  4  6  1  0
  6  7  1  0
  6  8  1  0
  8  9  1  0
  9 10  2  0
 10 11  1  0
 11 12  2  0
 11 13  1  0
 10 14  1  0
 14 15  1  0
 15 16  1  0
 16 17  2  0
 17 18  1  0
 18 19  2  0
 19 20  1  0
 20 21  2  0
 21 22  1  0
 22 23  2  0
 23 24  1  0
 24 25  2  0
 14 26  1  0
 26 27  2  0
 27 28  1  0
 28 29  2  0
 29 30  1  0
 29 31  1  0
 31 32  2  0
 32  9  1  0
 25 16  1  0
 32 26  1  0
 25 20  1  0
  1 33  1  0
  1 34  1  0
  1 35  1  0
  2 36  1  0
  2 37  1  0
  7 38  1  0
  7 39  1  0
  7 40  1  0
  8 41  1  0
  8 42  1  0
 15 43  1  0
 15 44  1  0
 17 45  1  0
 18 46  1  0
 19 47  1  0
 21 48  1  0
 22 49  1  0
 23 50  1  0
 24 51  1  0
 27 52  1  0
 28 53  1  0
 31 54  1  0
M  CHG  1  13  -1
M  END
>  <meeko>  (396) 
{"free_energy": -7.54, "intermolecular_energy": -9.92, "internal_energy": -1.79, "cluster_size": 417, "cluster_id": 2, "rank_in_cluster": 46}

$$$$

     RDKit          3D

 54 57  0  0  0  0  0  0  0  0999 V2000
   11.3040   32.7710   15.0010 C   0  0  0  0  0  0  0  0  0  0  0  0
   11.9370   34.0190   15.6190 C   0  0  0  0  0  0  0  0  0  0  0  0
   11.5310   35.1620   14.8840 O   0  0  0  0  0  0  0  0  0  0  0  0
   11.0020   36.2270   15.5260 C   0  0  0  0  0  0  0  0  0  0  0  0
   11.6760   37.1740   15.9360 O   0  0  0  0  0  0  0  0  0  0  0  0
    9.6130   36.0910   15.6420 N   0  0  0  0  0  0  0  0  0  0  0  0
    8.9930   34.9210   16.2740 C   0  0  0  0  0  0  0  0  0  0  0  0
    8.7010   37.1090   15.1050 C   0  0  0  0  0  0  0  0  0  0  0  0
    9.2730   37.8090   13.8950 C   0  0  0  0  0  0  0  0  0  0  0  0
    9.8720   39.0540   13.8170 C   0  0  0  0  0  0  0  0  0  0  0  0
   10.1570   40.0450   14.9010 C   0  0  0  0  0  0  0  0  0  0  0  0
    9.4100   41.0400   15.0170 O   0  0  0  0  0  0  0  0  0  0  0  0
   11.1360   39.8900   15.6630 O   0  0  0  0  0  1  0  0  0  0  0  0
   10.1950   39.3190   12.4690 N   0  0  0  0  0  0  0  0  0  0  0  0
   10.8480   40.5040   11.9050 C   0  0  0  0  0  0  0  0  0  0  0  0
   11.9970   40.2050   10.9320 C   0  0  0  0  0  0  0  0  0  0  0  0
   11.9010   40.5650    9.5640 C   0  0  0  0  0  0  0  0  0  0  0  0
   12.9500   40.2940    8.6690 C   0  0  0  0  0  0  0  0  0  0  0  0
   14.1150   39.6550    9.1250 C   0  0  0  0  0  0  0  0  0  0  0  0
   14.2330   39.2860   10.4790 C   0  0  0  0  0  0  0  0  0  0  0  0
   15.4090   38.6450   10.9190 C   0  0  0  0  0  0  0  0  0  0  0  0
   15.5490   38.2670   12.2660 C   0  0  0  0  0  0  0  0  0  0  0  0
   14.5110   38.5300   13.1770 C   0  0  0  0  0  0  0  0  0  0  0  0
   13.3330   39.1700   12.7440 C   0  0  0  0  0  0  0  0  0  0  0  0
   13.1760   39.5580   11.3900 C   0  0  0  0  0  0  0  0  0  0  0  0
    9.8010   38.2430   11.6840 C   0  0  0  0  0  0  0  0  0  0  0  0
    9.8810   38.0150   10.2940 C   0  0  0  0  0  0  0  0  0  0  0  0
    9.4040   36.8090    9.7540 C   0  0  0  0  0  0  0  0  0  0  0  0
    8.8520   35.8350   10.6040 C   0  0  0  0  0  0  0  0  0  0  0  0
    8.3940   34.6690   10.0900 F   0  0  0  0  0  0  0  0  0  0  0  0
    8.7720   36.0720   11.9900 C   0  0  0  0  0  0  0  0  0  0  0  0
    9.2380   37.2800   12.5630 C   0  0  0  0  0  0  0  0  0  0  0  0
   10.9628   32.0982   15.8016 H   0  0  0  0  0  0  0  0  0  0  0  0
   10.4460   33.0650   14.3785 H   0  0  0  0  0  0  0  0  0  0  0  0
   12.0480   32.2524   14.3785 H   0  0  0  0  0  0  0  0  0  0  0  0
   11.6090   34.1184   16.6643 H   0  0  0  0  0  0  0  0  0  0  0  0
   13.0330   33.9306   15.5882 H   0  0  0  0  0  0  0  0  0  0  0  0
    9.0472   35.0233   17.3679 H   0  0  0  0  0  0  0  0  0  0  0  0
    7.9399   34.8518   15.9640 H   0  0  0  0  0  0  0  0  0  0  0  0
    9.5271   34.0107   15.9640 H   0  0  0  0  0  0  0  0  0  0  0  0
    7.7567   36.6226   14.8190 H   0  0  0  0  0  0  0  0  0  0  0  0
    8.5419   37.8653   15.8878 H   0  0  0  0  0  0  0  0  0  0  0  0
   10.0881   41.0899   11.3672 H   0  0  0  0  0  0  0  0  0  0  0  0
   11.2936   41.0447   12.7530 H   0  0  0  0  0  0  0  0  0  0  0  0
   10.9917   41.0640    9.1977 H   0  0  0  0  0  0  0  0  0  0  0  0
   12.8589   40.5822    7.6114 H   0  0  0  0  0  0  0  0  0  0  0  0
   14.9357   39.4427    8.4240 H   0  0  0  0  0  0  0  0  0  0  0  0
   16.2206   38.4397   10.2054 H   0  0  0  0  0  0  0  0  0  0  0  0
   16.4679   37.7670   12.6060 H   0  0  0  0  0  0  0  0  0  0  0  0
   14.6190   38.2351   14.2312 H   0  0  0  0  0  0  0  0  0  0  0  0
   12.5265   39.3707   13.4646 H   0  0  0  0  0  0  0  0  0  0  0  0
   10.3161   38.7802    9.6343 H   0  0  0  0  0  0  0  0  0  0  0  0
    9.4622   36.6277    8.6706 H   0  0  0  0  0  0  0  0  0  0  0  0
    8.3373   35.3006   12.6426 H   0  0  0  0  0  0  0  0  0  0  0  0
  1  2  1  0
  2  3  1  0
  3  4  1  0
  4  5  2  0
  4  6  1  0
  6  7  1  0
  6  8  1  0
  8  9  1  0
  9 10  2  0
 10 11  1  0
 11 12  2  0
 11 13  1  0
 10 14  1  0
 14 15  1  0
 15 16  1  0
 16 17  2  0
 17 18  1  0
 18 19  2  0
 19 20  1  0
 20 21  2  0
 21 22  1  0
 22 23  2  0
 23 24  1  0
 24 25  2  0
 14 26  1  0
 26 27  2  0
 27 28  1  0
 28 29  2  0
 29 30  1  0
 29 31  1  0
 31 32  2  0
 32  9  1  0
 25 16  1  0
 32 26  1  0
 25 20  1  0
  1 33  1  0
  1 34  1  0
  1 35  1  0
  2 36  1  0
  2 37  1  0
  7 38  1  0
  7 39  1  0
  7 40  1  0
  8 41  1  0
  8 42  1  0
 15 43  1  0
 15 44  1  0
 17 45  1  0
 18 46  1  0
 19 47  1  0
 21 48  1  0
 22 49  1  0
 23 50  1  0
 24 51  1  0
 27 52  1  0
 28 53  1  0
 31 54  1  0
M  CHG  1  13  -1
M  END
>  <meeko>  (397) 
{"free_energy": -4.43, "intermolecular_energy": -6.82, "internal_energy": -2.16, "cluster_size": 251, "cluster_id": 26, "rank_in_cluster": 246}

$$$$

     RDKit          3D

 54 57  0  0  0  0  0  0  0  0999 V2000
    8.4840   38.3790   20.6830 C   0  0  0  0  0  0  0  0  0  0  0  0
    7.1520   38.2010   19.9490 C   0  0  0  0  0  0  0  0  0  0  0  0
    7.2630   38.7400   18.6420 O   0  0  0  0  0  0  0  0  0  0  0  0
    8.3300   38.4350   17.8730 C   0  0  0  0  0  0  0  0  0  0  0  0
    9.2480   39.2250   17.6430 O   0  0  0  0  0  0  0  0  0  0  0  0
    8.2360   37.1200   17.4000 N   0  0  0  0  0  0  0  0  0  0  0  0
    6.9470   36.4350   17.2510 C   0  0  0  0  0  0  0  0  0  0  0  0
    9.4350   36.3460   17.0540 C   0  0  0  0  0  0  0  0  0  0  0  0
   10.0030   36.7410   15.7110 C   0  0  0  0  0  0  0  0  0  0  0  0
    9.6750   36.2600   14.4560 C   0  0  0  0  0  0  0  0  0  0  0  0
    8.6500   35.2440   14.0620 C   0  0  0  0  0  0  0  0  0  0  0  0
    8.1280   35.3260   12.9290 O   0  0  0  0  0  0  0  0  0  0  0  0
    8.3080   34.3430   14.8580 O   0  0  0  0  0  1  0  0  0  0  0  0
   10.5110   36.8760   13.5000 N   0  0  0  0  0  0  0  0  0  0  0  0
   10.5250   36.6890   12.0460 C   0  0  0  0  0  0  0  0  0  0  0  0
    9.6810   37.6990   11.2580 C   0  0  0  0  0  0  0  0  0  0  0  0
    9.6690   39.0710   11.6160 C   0  0  0  0  0  0  0  0  0  0  0  0
    8.8980   40.0000   10.8970 C   0  0  0  0  0  0  0  0  0  0  0  0
    8.1220   39.5740    9.8060 C   0  0  0  0  0  0  0  0  0  0  0  0
    8.1160   38.2170    9.4320 C   0  0  0  0  0  0  0  0  0  0  0  0
    7.3310   37.8080    8.3340 C   0  0  0  0  0  0  0  0  0  0  0  0
    7.3100   36.4570    7.9430 C   0  0  0  0  0  0  0  0  0  0  0  0
    8.0750   35.5120    8.6490 C   0  0  0  0  0  0  0  0  0  0  0  0
    8.8610   35.9150    9.7460 C   0  0  0  0  0  0  0  0  0  0  0  0
    8.8940   37.2710   10.1540 C   0  0  0  0  0  0  0  0  0  0  0  0
   11.3750   37.7520   14.1450 C   0  0  0  0  0  0  0  0  0  0  0  0
   12.4000   38.5890   13.6580 C   0  0  0  0  0  0  0  0  0  0  0  0
   13.1280   39.3960   14.5480 C   0  0  0  0  0  0  0  0  0  0  0  0
   12.8280   39.3640   15.9210 C   0  0  0  0  0  0  0  0  0  0  0  0
   13.5240   40.1420   16.7840 F   0  0  0  0  0  0  0  0  0  0  0  0
   11.8050   38.5230   16.4000 C   0  0  0  0  0  0  0  0  0  0  0  0
   11.0590   37.6940   15.5280 C   0  0  0  0  0  0  0  0  0  0  0  0
    8.3102   38.3558   21.7689 H   0  0  0  0  0  0  0  0  0  0  0  0
    9.1683   37.5643   20.4037 H   0  0  0  0  0  0  0  0  0  0  0  0
    8.9304   39.3448   20.4037 H   0  0  0  0  0  0  0  0  0  0  0  0
    6.9072   37.1304   19.8857 H   0  0  0  0  0  0  0  0  0  0  0  0
    6.3553   38.7246   20.4978 H   0  0  0  0  0  0  0  0  0  0  0  0
    6.5319   36.2144   18.2455 H   0  0  0  0  0  0  0  0  0  0  0  0
    6.2499   37.0816   16.6979 H   0  0  0  0  0  0  0  0  0  0  0  0
    7.0929   35.4954   16.6979 H   0  0  0  0  0  0  0  0  0  0  0  0
   10.2004   36.5152   17.8257 H   0  0  0  0  0  0  0  0  0  0  0  0
    9.1477   35.2856   16.9998 H   0  0  0  0  0  0  0  0  0  0  0  0
   11.5662   36.7704   11.7008 H   0  0  0  0  0  0  0  0  0  0  0  0
   10.0804   35.7007   11.8572 H   0  0  0  0  0  0  0  0  0  0  0  0
   10.2725   39.4133   12.4696 H   0  0  0  0  0  0  0  0  0  0  0  0
    8.9020   41.0607   11.1883 H   0  0  0  0  0  0  0  0  0  0  0  0
    7.5185   40.3016    9.2435 H   0  0  0  0  0  0  0  0  0  0  0  0
    6.7332   38.5479    7.7816 H   0  0  0  0  0  0  0  0  0  0  0  0
    6.6964   36.1405    7.0867 H   0  0  0  0  0  0  0  0  0  0  0  0
    8.0596   34.4553    8.3438 H   0  0  0  0  0  0  0  0  0  0  0  0
    9.4560   35.1682   10.2921 H   0  0  0  0  0  0  0  0  0  0  0  0
   12.6293   38.6100   12.5824 H   0  0  0  0  0  0  0  0  0  0  0  0
   13.9289   40.0498   14.1724 H   0  0  0  0  0  0  0  0  0  0  0  0
   11.5804   38.5099   17.4767 H   0  0  0  0  0  0  0  0  0  0  0  0
  1  2  1  0
  2  3  1  0
  3  4  1  0
  4  5  2  0
  4  6  1  0
  6  7  1  0
  6  8  1  0
  8  9  1  0
  9 10  2  0
 10 11  1  0
 11 12  2  0
 11 13  1  0
 10 14  1  0
 14 15  1  0
 15 16  1  0
 16 17  2  0
 17 18  1  0
 18 19  2  0
 19 20  1  0
 20 21  2  0
 21 22  1  0
 22 23  2  0
 23 24  1  0
 24 25  2  0
 14 26  1  0
 26 27  2  0
 27 28  1  0
 28 29  2  0
 29 30  1  0
 29 31  1  0
 31 32  2  0
 32  9  1  0
 25 16  1  0
 32 26  1  0
 25 20  1  0
  1 33  1  0
  1 34  1  0
  1 35  1  0
  2 36  1  0
  2 37  1  0
  7 38  1  0
  7 39  1  0
  7 40  1  0
  8 41  1  0
  8 42  1  0
 15 43  1  0
 15 44  1  0
 17 45  1  0
 18 46  1  0
 19 47  1  0
 21 48  1  0
 22 49  1  0
 23 50  1  0
 24 51  1  0
 27 52  1  0
 28 53  1  0
 31 54  1  0
M  CHG  1  13  -1
M  END
>  <meeko>  (398) 
{"free_energy": -7.35, "intermolecular_energy": -9.74, "internal_energy": -1.84, "cluster_size": 263, "cluster_id": 1, "rank_in_cluster": 57}

$$$$

     RDKit          3D

 54 57  0  0  0  0  0  0  0  0999 V2000
   14.1340   40.4060    8.3000 C   0  0  0  0  0  0  0  0  0  0  0  0
   14.9670   40.9330    9.4710 C   0  0  0  0  0  0  0  0  0  0  0  0
   14.1060   41.2530   10.5510 O   0  0  0  0  0  0  0  0  0  0  0  0
   14.4990   41.0210   11.8220 C   0  0  0  0  0  0  0  0  0  0  0  0
   14.4860   41.8810   12.7040 O   0  0  0  0  0  0  0  0  0  0  0  0
   14.9060   39.6890   11.9740 N   0  0  0  0  0  0  0  0  0  0  0  0
   16.2370   39.3320   12.4770 C   0  0  0  0  0  0  0  0  0  0  0  0
   14.0200   38.5750   11.6070 C   0  0  0  0  0  0  0  0  0  0  0  0
   12.5680   38.8850   11.8820 C   0  0  0  0  0  0  0  0  0  0  0  0
   11.4700   38.6880   11.0630 C   0  0  0  0  0  0  0  0  0  0  0  0
   11.3960   38.0850    9.6950 C   0  0  0  0  0  0  0  0  0  0  0  0
   11.6310   38.8110    8.7060 O   0  0  0  0  0  0  0  0  0  0  0  0
   11.0850   36.8830    9.5450 O   0  0  0  0  0  1  0  0  0  0  0  0
   10.3220   39.1870   11.7140 N   0  0  0  0  0  0  0  0  0  0  0  0
    8.9350   39.1890   11.2410 C   0  0  0  0  0  0  0  0  0  0  0  0
    8.4850   37.8910   10.5570 C   0  0  0  0  0  0  0  0  0  0  0  0
    8.5620   36.6480   11.2350 C   0  0  0  0  0  0  0  0  0  0  0  0
    8.1510   35.4570   10.6120 C   0  0  0  0  0  0  0  0  0  0  0  0
    7.6570   35.4860    9.2980 C   0  0  0  0  0  0  0  0  0  0  0  0
    7.5720   36.7070    8.6030 C   0  0  0  0  0  0  0  0  0  0  0  0
    7.0740   36.7170    7.2840 C   0  0  0  0  0  0  0  0  0  0  0  0
    6.9800   37.9250    6.5700 C   0  0  0  0  0  0  0  0  0  0  0  0
    7.3850   39.1280    7.1760 C   0  0  0  0  0  0  0  0  0  0  0  0
    7.8840   39.1250    8.4930 C   0  0  0  0  0  0  0  0  0  0  0  0
    7.9850   37.9170    9.2260 C   0  0  0  0  0  0  0  0  0  0  0  0
   10.6850   39.7040   12.9510 C   0  0  0  0  0  0  0  0  0  0  0  0
    9.9320   40.3240   13.9690 C   0  0  0  0  0  0  0  0  0  0  0  0
   10.5650   40.7540   15.1470 C   0  0  0  0  0  0  0  0  0  0  0  0
   11.9490   40.5610   15.3040 C   0  0  0  0  0  0  0  0  0  0  0  0
   12.5650   40.9700   16.4380 F   0  0  0  0  0  0  0  0  0  0  0  0
   12.6950   39.9450   14.2810 C   0  0  0  0  0  0  0  0  0  0  0  0
   12.0860   39.5070   13.0800 C   0  0  0  0  0  0  0  0  0  0  0  0
   13.2640   39.8556    8.6874 H   0  0  0  0  0  0  0  0  0  0  0  0
   13.7895   41.2509    7.6855 H   0  0  0  0  0  0  0  0  0  0  0  0
   14.7499   39.7328    7.6855 H   0  0  0  0  0  0  0  0  0  0  0  0
   15.6840   40.1616    9.7886 H   0  0  0  0  0  0  0  0  0  0  0  0
   15.5157   41.8333    9.1575 H   0  0  0  0  0  0  0  0  0  0  0  0
   16.2262   39.3349   13.5769 H   0  0  0  0  0  0  0  0  0  0  0  0
   16.5087   38.3292   12.1156 H   0  0  0  0  0  0  0  0  0  0  0  0
   16.9741   40.0642   12.1156 H   0  0  0  0  0  0  0  0  0  0  0  0
   14.1402   38.3658   10.5338 H   0  0  0  0  0  0  0  0  0  0  0  0
   14.3008   37.7052   12.2190 H   0  0  0  0  0  0  0  0  0  0  0  0
    8.2789   39.3648   12.1062 H   0  0  0  0  0  0  0  0  0  0  0  0
    8.8697   39.9789   10.4783 H   0  0  0  0  0  0  0  0  0  0  0  0
    8.9492   36.6153   12.2641 H   0  0  0  0  0  0  0  0  0  0  0  0
    8.2164   34.5020   11.1539 H   0  0  0  0  0  0  0  0  0  0  0  0
    7.3360   34.5533    8.8111 H   0  0  0  0  0  0  0  0  0  0  0  0
    6.7575   35.7756    6.8112 H   0  0  0  0  0  0  0  0  0  0  0  0
    6.5911   37.9290    5.5411 H   0  0  0  0  0  0  0  0  0  0  0  0
    7.3118   40.0740    6.6196 H   0  0  0  0  0  0  0  0  0  0  0  0
    8.1988   40.0711    8.9576 H   0  0  0  0  0  0  0  0  0  0  0  0
    8.8494   40.4709   13.8409 H   0  0  0  0  0  0  0  0  0  0  0  0
    9.9809   41.2393   15.9428 H   0  0  0  0  0  0  0  0  0  0  0  0
   13.7768   39.8005   14.4180 H   0  0  0  0  0  0  0  0  0  0  0  0
  1  2  1  0
  2  3  1  0
  3  4  1  0
  4  5  2  0
  4  6  1  0
  6  7  1  0
  6  8  1  0
  8  9  1  0
  9 10  2  0
 10 11  1  0
 11 12  2  0
 11 13  1  0
 10 14  1  0
 14 15  1  0
 15 16  1  0
 16 17  2  0
 17 18  1  0
 18 19  2  0
 19 20  1  0
 20 21  2  0
 21 22  1  0
 22 23  2  0
 23 24  1  0
 24 25  2  0
 14 26  1  0
 26 27  2  0
 27 28  1  0
 28 29  2  0
 29 30  1  0
 29 31  1  0
 31 32  2  0
 32  9  1  0
 25 16  1  0
 32 26  1  0
 25 20  1  0
  1 33  1  0
  1 34  1  0
  1 35  1  0
  2 36  1  0
  2 37  1  0
  7 38  1  0
  7 39  1  0
  7 40  1  0
  8 41  1  0
  8 42  1  0
 15 43  1  0
 15 44  1  0
 17 45  1  0
 18 46  1  0
 19 47  1  0
 21 48  1  0
 22 49  1  0
 23 50  1  0
 24 51  1  0
 27 52  1  0
 28 53  1  0
 31 54  1  0
M  CHG  1  13  -1
M  END
>  <meeko>  (399) 
{"free_energy": -5.76, "intermolecular_energy": -8.15, "internal_energy": -2.03, "cluster_size": 292, "cluster_id": 10, "rank_in_cluster": 194}

$$$$

     RDKit          3D

 54 57  0  0  0  0  0  0  0  0999 V2000
   17.5950   39.2190   13.7860 C   0  0  0  0  0  0  0  0  0  0  0  0
   18.3170   40.5160   13.4100 C   0  0  0  0  0  0  0  0  0  0  0  0
   17.5240   41.2390   12.4830 O   0  0  0  0  0  0  0  0  0  0  0  0
   16.1770   41.1700   12.5460 C   0  0  0  0  0  0  0  0  0  0  0  0
   15.5270   41.5140   13.5350 O   0  0  0  0  0  0  0  0  0  0  0  0
   15.6530   40.6690   11.3480 N   0  0  0  0  0  0  0  0  0  0  0  0
   16.1900   39.4640   10.7050 C   0  0  0  0  0  0  0  0  0  0  0  0
   14.5500   41.3480   10.6550 C   0  0  0  0  0  0  0  0  0  0  0  0
   13.2100   40.7180   10.9570 C   0  0  0  0  0  0  0  0  0  0  0  0
   12.7630   39.4450   10.6510 C   0  0  0  0  0  0  0  0  0  0  0  0
   13.4780   38.3210    9.9710 C   0  0  0  0  0  0  0  0  0  0  0  0
   13.4720   37.1920   10.5080 O   0  0  0  0  0  0  0  0  0  0  0  0
   14.0870   38.5110    8.8950 O   0  0  0  0  0  1  0  0  0  0  0  0
   11.4220   39.3210   11.0720 N   0  0  0  0  0  0  0  0  0  0  0  0
   10.5390   38.1560   10.9680 C   0  0  0  0  0  0  0  0  0  0  0  0
    9.4770   38.2480    9.8640 C   0  0  0  0  0  0  0  0  0  0  0  0
    9.0570   39.5060    9.3640 C   0  0  0  0  0  0  0  0  0  0  0  0
    8.0850   39.5960    8.3520 C   0  0  0  0  0  0  0  0  0  0  0  0
    7.5120   38.4280    7.8240 C   0  0  0  0  0  0  0  0  0  0  0  0
    7.9110   37.1660    8.3060 C   0  0  0  0  0  0  0  0  0  0  0  0
    7.3240   36.0040    7.7640 C   0  0  0  0  0  0  0  0  0  0  0  0
    7.7070   34.7340    8.2300 C   0  0  0  0  0  0  0  0  0  0  0  0
    8.6790   34.6230    9.2410 C   0  0  0  0  0  0  0  0  0  0  0  0
    9.2670   35.7800    9.7860 C   0  0  0  0  0  0  0  0  0  0  0  0
    8.8940   37.0680    9.3280 C   0  0  0  0  0  0  0  0  0  0  0  0
   11.0110   40.5170   11.6480 C   0  0  0  0  0  0  0  0  0  0  0  0
    9.7780   40.9160   12.2050 C   0  0  0  0  0  0  0  0  0  0  0  0
    9.6360   42.2090   12.7360 C   0  0  0  0  0  0  0  0  0  0  0  0
   10.7260   43.0960   12.7110 C   0  0  0  0  0  0  0  0  0  0  0  0
   10.5970   44.3420   13.2260 F   0  0  0  0  0  0  0  0  0  0  0  0
   11.9520   42.6910   12.1500 C   0  0  0  0  0  0  0  0  0  0  0  0
   12.1240   41.3970   11.6000 C   0  0  0  0  0  0  0  0  0  0  0  0
   17.5460   39.1309   14.8814 H   0  0  0  0  0  0  0  0  0  0  0  0
   16.5754   39.2340   13.3734 H   0  0  0  0  0  0  0  0  0  0  0  0
   18.1449   38.3603   13.3734 H   0  0  0  0  0  0  0  0  0  0  0  0
   18.4744   41.1245   14.3128 H   0  0  0  0  0  0  0  0  0  0  0  0
   19.2911   40.2789   12.9573 H   0  0  0  0  0  0  0  0  0  0  0  0
   16.5091   38.7479   11.4766 H   0  0  0  0  0  0  0  0  0  0  0  0
   15.4113   39.0049   10.0782 H   0  0  0  0  0  0  0  0  0  0  0  0
   17.0521   39.7361   10.0782 H   0  0  0  0  0  0  0  0  0  0  0  0
   14.5262   42.4005   10.9739 H   0  0  0  0  0  0  0  0  0  0  0  0
   14.7273   41.2606    9.5729 H   0  0  0  0  0  0  0  0  0  0  0  0
   11.1621   37.2713   10.7702 H   0  0  0  0  0  0  0  0  0  0  0  0
    9.9909   38.0978   11.9199 H   0  0  0  0  0  0  0  0  0  0  0  0
    9.4984   40.4263    9.7741 H   0  0  0  0  0  0  0  0  0  0  0  0
    7.7736   40.5810    7.9741 H   0  0  0  0  0  0  0  0  0  0  0  0
    6.7507   38.4985    7.0331 H   0  0  0  0  0  0  0  0  0  0  0  0
    6.5638   36.0915    6.9738 H   0  0  0  0  0  0  0  0  0  0  0  0
    7.2477   33.8293    7.8051 H   0  0  0  0  0  0  0  0  0  0  0  0
    8.9801   33.6301    9.6063 H   0  0  0  0  0  0  0  0  0  0  0  0
   10.0252   35.6831   10.5770 H   0  0  0  0  0  0  0  0  0  0  0  0
    8.9294   40.2163   12.2236 H   0  0  0  0  0  0  0  0  0  0  0  0
    8.6759   42.5258   13.1694 H   0  0  0  0  0  0  0  0  0  0  0  0
   12.7963   43.3960   12.1385 H   0  0  0  0  0  0  0  0  0  0  0  0
  1  2  1  0
  2  3  1  0
  3  4  1  0
  4  5  2  0
  4  6  1  0
  6  7  1  0
  6  8  1  0
  8  9  1  0
  9 10  2  0
 10 11  1  0
 11 12  2  0
 11 13  1  0
 10 14  1  0
 14 15  1  0
 15 16  1  0
 16 17  2  0
 17 18  1  0
 18 19  2  0
 19 20  1  0
 20 21  2  0
 21 22  1  0
 22 23  2  0
 23 24  1  0
 24 25  2  0
 14 26  1  0
 26 27  2  0
 27 28  1  0
 28 29  2  0
 29 30  1  0
 29 31  1  0
 31 32  2  0
 32  9  1  0
 25 16  1  0
 32 26  1  0
 25 20  1  0
  1 33  1  0
  1 34  1  0
  1 35  1  0
  2 36  1  0
  2 37  1  0
  7 38  1  0
  7 39  1  0
  7 40  1  0
  8 41  1  0
  8 42  1  0
 15 43  1  0
 15 44  1  0
 17 45  1  0
 18 46  1  0
 19 47  1  0
 21 48  1  0
 22 49  1  0
 23 50  1  0
 24 51  1  0
 27 52  1  0
 28 53  1  0
 31 54  1  0
M  CHG  1  13  -1
M  END
>  <meeko>  (400) 
{"free_energy": -4.96, "intermolecular_energy": -7.35, "internal_energy": -1.57, "cluster_size": 14, "cluster_id": 104, "rank_in_cluster": 10}

$$$$

     RDKit          3D

 54 57  0  0  0  0  0  0  0  0999 V2000
    4.2370   37.7440   18.2230 C   0  0  0  0  0  0  0  0  0  0  0  0
    5.1600   38.7580   18.9040 C   0  0  0  0  0  0  0  0  0  0  0  0
    6.5010   38.5000   18.5190 O   0  0  0  0  0  0  0  0  0  0  0  0
    7.0100   37.2540   18.6310 C   0  0  0  0  0  0  0  0  0  0  0  0
    7.0010   36.6100   19.6810 O   0  0  0  0  0  0  0  0  0  0  0  0
    7.5250   36.8220   17.4020 N   0  0  0  0  0  0  0  0  0  0  0  0
    6.6660   36.5800   16.2370 C   0  0  0  0  0  0  0  0  0  0  0  0
    8.9600   36.5610   17.2270 C   0  0  0  0  0  0  0  0  0  0  0  0
    9.4920   37.1290   15.9330 C   0  0  0  0  0  0  0  0  0  0  0  0
    9.6670   36.4950   14.7150 C   0  0  0  0  0  0  0  0  0  0  0  0
    9.3520   35.0870   14.3190 C   0  0  0  0  0  0  0  0  0  0  0  0
    8.1920   34.8140   13.9410 O   0  0  0  0  0  0  0  0  0  0  0  0
   10.2270   34.1960   14.3840 O   0  0  0  0  0  1  0  0  0  0  0  0
   10.2520   37.4050   13.8090 N   0  0  0  0  0  0  0  0  0  0  0  0
   10.6120   37.1870   12.4050 C   0  0  0  0  0  0  0  0  0  0  0  0
    9.7360   37.9360   11.3910 C   0  0  0  0  0  0  0  0  0  0  0  0
    9.6640   39.3510   11.4000 C   0  0  0  0  0  0  0  0  0  0  0  0
    8.8630   40.0410   10.4730 C   0  0  0  0  0  0  0  0  0  0  0  0
    8.1170   39.3270    9.5210 C   0  0  0  0  0  0  0  0  0  0  0  0
    8.1710   37.9210    9.4940 C   0  0  0  0  0  0  0  0  0  0  0  0
    7.4140   37.2200    8.5310 C   0  0  0  0  0  0  0  0  0  0  0  0
    7.4520   35.8150    8.4850 C   0  0  0  0  0  0  0  0  0  0  0  0
    8.2480   35.1070    9.4030 C   0  0  0  0  0  0  0  0  0  0  0  0
    9.0050   35.8000   10.3670 C   0  0  0  0  0  0  0  0  0  0  0  0
    8.9790   37.2160   10.4270 C   0  0  0  0  0  0  0  0  0  0  0  0
   10.4520   38.6220   14.4470 C   0  0  0  0  0  0  0  0  0  0  0  0
   11.0090   39.8380   14.0000 C   0  0  0  0  0  0  0  0  0  0  0  0
   11.0830   40.9370   14.8710 C   0  0  0  0  0  0  0  0  0  0  0  0
   10.5980   40.8190   16.1850 C   0  0  0  0  0  0  0  0  0  0  0  0
   10.6630   41.8760   17.0280 F   0  0  0  0  0  0  0  0  0  0  0  0
   10.0470   39.6000   16.6260 C   0  0  0  0  0  0  0  0  0  0  0  0
    9.9650   38.4730   15.7730 C   0  0  0  0  0  0  0  0  0  0  0  0
    3.7054   37.1600   18.9887 H   0  0  0  0  0  0  0  0  0  0  0  0
    3.5070   38.2763   17.5955 H   0  0  0  0  0  0  0  0  0  0  0  0
    4.8354   37.0671   17.5955 H   0  0  0  0  0  0  0  0  0  0  0  0
    4.8784   39.7761   18.5970 H   0  0  0  0  0  0  0  0  0  0  0  0
    5.0653   38.6687   19.9963 H   0  0  0  0  0  0  0  0  0  0  0  0
    5.6589   36.2963   16.5766 H   0  0  0  0  0  0  0  0  0  0  0  0
    6.6041   37.4957   15.6306 H   0  0  0  0  0  0  0  0  0  0  0  0
    7.0911   35.7667   15.6306 H   0  0  0  0  0  0  0  0  0  0  0  0
    9.5073   37.0172   18.0651 H   0  0  0  0  0  0  0  0  0  0  0  0
    9.1029   35.4707   17.1999 H   0  0  0  0  0  0  0  0  0  0  0  0
   11.6531   37.5131   12.2643 H   0  0  0  0  0  0  0  0  0  0  0  0
   10.4624   36.1147   12.2103 H   0  0  0  0  0  0  0  0  0  0  0  0
   10.2434   39.9182   12.1433 H   0  0  0  0  0  0  0  0  0  0  0  0
    8.8206   41.1400   10.4934 H   0  0  0  0  0  0  0  0  0  0  0  0
    7.4902   39.8671    8.7961 H   0  0  0  0  0  0  0  0  0  0  0  0
    6.7917   37.7749    7.8135 H   0  0  0  0  0  0  0  0  0  0  0  0
    6.8609   35.2715    7.7332 H   0  0  0  0  0  0  0  0  0  0  0  0
    8.2794   34.0080    9.3678 H   0  0  0  0  0  0  0  0  0  0  0  0
    9.6233   35.2365   11.0813 H   0  0  0  0  0  0  0  0  0  0  0  0
   11.3851   39.9255   12.9700 H   0  0  0  0  0  0  0  0  0  0  0  0
   11.5188   41.8864   14.5264 H   0  0  0  0  0  0  0  0  0  0  0  0
    9.6717   39.5218   17.6570 H   0  0  0  0  0  0  0  0  0  0  0  0
  1  2  1  0
  2  3  1  0
  3  4  1  0
  4  5  2  0
  4  6  1  0
  6  7  1  0
  6  8  1  0
  8  9  1  0
  9 10  2  0
 10 11  1  0
 11 12  2  0
 11 13  1  0
 10 14  1  0
 14 15  1  0
 15 16  1  0
 16 17  2  0
 17 18  1  0
 18 19  2  0
 19 20  1  0
 20 21  2  0
 21 22  1  0
 22 23  2  0
 23 24  1  0
 24 25  2  0
 14 26  1  0
 26 27  2  0
 27 28  1  0
 28 29  2  0
 29 30  1  0
 29 31  1  0
 31 32  2  0
 32  9  1  0
 25 16  1  0
 32 26  1  0
 25 20  1  0
  1 33  1  0
  1 34  1  0
  1 35  1  0
  2 36  1  0
  2 37  1  0
  7 38  1  0
  7 39  1  0
  7 40  1  0
  8 41  1  0
  8 42  1  0
 15 43  1  0
 15 44  1  0
 17 45  1  0
 18 46  1  0
 19 47  1  0
 21 48  1  0
 22 49  1  0
 23 50  1  0
 24 51  1  0
 27 52  1  0
 28 53  1  0
 31 54  1  0
M  CHG  1  13  -1
M  END
>  <meeko>  (401) 
{"free_energy": -7.46, "intermolecular_energy": -9.85, "internal_energy": -1.67, "cluster_size": 163, "cluster_id": 4, "rank_in_cluster": 10}

$$$$

     RDKit          3D

 54 57  0  0  0  0  0  0  0  0999 V2000
   15.3700   41.5370   15.5240 C   0  0  0  0  0  0  0  0  0  0  0  0
   15.8120   41.0910   14.1280 C   0  0  0  0  0  0  0  0  0  0  0  0
   16.7110   40.0010   14.2490 O   0  0  0  0  0  0  0  0  0  0  0  0
   16.3840   38.7940   13.7400 C   0  0  0  0  0  0  0  0  0  0  0  0
   16.3000   37.7710   14.4210 O   0  0  0  0  0  0  0  0  0  0  0  0
   16.1550   38.8880   12.3610 N   0  0  0  0  0  0  0  0  0  0  0  0
   16.9820   39.7310   11.4890 C   0  0  0  0  0  0  0  0  0  0  0  0
   15.0490   38.1640   11.7200 C   0  0  0  0  0  0  0  0  0  0  0  0
   13.7130   38.8200   11.9750 C   0  0  0  0  0  0  0  0  0  0  0  0
   12.8340   39.3800   11.0640 C   0  0  0  0  0  0  0  0  0  0  0  0
   12.9330   39.4670    9.5730 C   0  0  0  0  0  0  0  0  0  0  0  0
   12.1710   40.2490    8.9660 O   0  0  0  0  0  0  0  0  0  0  0  0
   13.7490   38.7560    8.9470 O   0  0  0  0  0  1  0  0  0  0  0  0
   11.7420   39.9320   11.7660 N   0  0  0  0  0  0  0  0  0  0  0  0
   10.5640   40.6160   11.2250 C   0  0  0  0  0  0  0  0  0  0  0  0
    9.6500   39.7400   10.3580 C   0  0  0  0  0  0  0  0  0  0  0  0
    9.1420   40.2190    9.1240 C   0  0  0  0  0  0  0  0  0  0  0  0
    8.3050   39.4200    8.3270 C   0  0  0  0  0  0  0  0  0  0  0  0
    7.9580   38.1270    8.7490 C   0  0  0  0  0  0  0  0  0  0  0  0
    8.4480   37.6290    9.9720 C   0  0  0  0  0  0  0  0  0  0  0  0
    8.0880   36.3280   10.3810 C   0  0  0  0  0  0  0  0  0  0  0  0
    8.5650   35.8110   11.5980 C   0  0  0  0  0  0  0  0  0  0  0  0
    9.4050   36.5940   12.4100 C   0  0  0  0  0  0  0  0  0  0  0  0
    9.7670   37.8940   12.0070 C   0  0  0  0  0  0  0  0  0  0  0  0
    9.2960   38.4310   10.7840 C   0  0  0  0  0  0  0  0  0  0  0  0
   11.9210   39.7260   13.1270 C   0  0  0  0  0  0  0  0  0  0  0  0
   11.1400   40.0880   14.2440 C   0  0  0  0  0  0  0  0  0  0  0  0
   11.5620   39.7380   15.5380 C   0  0  0  0  0  0  0  0  0  0  0  0
   12.7610   39.0260   15.7110 C   0  0  0  0  0  0  0  0  0  0  0  0
   13.1710   38.6830   16.9550 F   0  0  0  0  0  0  0  0  0  0  0  0
   13.5380   38.6710   14.5910 C   0  0  0  0  0  0  0  0  0  0  0  0
   13.1420   39.0150   13.2760 C   0  0  0  0  0  0  0  0  0  0  0  0
   15.9299   40.9720   16.2838 H   0  0  0  0  0  0  0  0  0  0  0  0
   15.5692   42.6120   15.6457 H   0  0  0  0  0  0  0  0  0  0  0  0
   14.2933   41.3475   15.6457 H   0  0  0  0  0  0  0  0  0  0  0  0
   14.9323   40.7793   13.5458 H   0  0  0  0  0  0  0  0  0  0  0  0
   16.3109   41.9259   13.6143 H   0  0  0  0  0  0  0  0  0  0  0  0
   17.6200   40.3813   12.1055 H   0  0  0  0  0  0  0  0  0  0  0  0
   17.6140   39.0927   10.8540 H   0  0  0  0  0  0  0  0  0  0  0  0
   16.3317   40.3507   10.8540 H   0  0  0  0  0  0  0  0  0  0  0  0
   15.2273   38.1338   10.6350 H   0  0  0  0  0  0  0  0  0  0  0  0
   15.0150   37.1516   12.1489 H   0  0  0  0  0  0  0  0  0  0  0  0
    9.9715   40.9963   12.0702 H   0  0  0  0  0  0  0  0  0  0  0  0
   10.9440   41.4113   10.5670 H   0  0  0  0  0  0  0  0  0  0  0  0
    9.4072   41.2315    8.7855 H   0  0  0  0  0  0  0  0  0  0  0  0
    7.9214   39.8079    7.3718 H   0  0  0  0  0  0  0  0  0  0  0  0
    7.3029   37.5022    8.1241 H   0  0  0  0  0  0  0  0  0  0  0  0
    7.4316   35.7157    9.7453 H   0  0  0  0  0  0  0  0  0  0  0  0
    8.2819   34.7963   11.9146 H   0  0  0  0  0  0  0  0  0  0  0  0
    9.7801   36.1901   13.3620 H   0  0  0  0  0  0  0  0  0  0  0  0
   10.4232   38.4994   12.6496 H   0  0  0  0  0  0  0  0  0  0  0  0
   10.2013   40.6438   14.1026 H   0  0  0  0  0  0  0  0  0  0  0  0
   10.9562   40.0202   16.4117 H   0  0  0  0  0  0  0  0  0  0  0  0
   14.4742   38.1135   14.7416 H   0  0  0  0  0  0  0  0  0  0  0  0
  1  2  1  0
  2  3  1  0
  3  4  1  0
  4  5  2  0
  4  6  1  0
  6  7  1  0
  6  8  1  0
  8  9  1  0
  9 10  2  0
 10 11  1  0
 11 12  2  0
 11 13  1  0
 10 14  1  0
 14 15  1  0
 15 16  1  0
 16 17  2  0
 17 18  1  0
 18 19  2  0
 19 20  1  0
 20 21  2  0
 21 22  1  0
 22 23  2  0
 23 24  1  0
 24 25  2  0
 14 26  1  0
 26 27  2  0
 27 28  1  0
 28 29  2  0
 29 30  1  0
 29 31  1  0
 31 32  2  0
 32  9  1  0
 25 16  1  0
 32 26  1  0
 25 20  1  0
  1 33  1  0
  1 34  1  0
  1 35  1  0
  2 36  1  0
  2 37  1  0
  7 38  1  0
  7 39  1  0
  7 40  1  0
  8 41  1  0
  8 42  1  0
 15 43  1  0
 15 44  1  0
 17 45  1  0
 18 46  1  0
 19 47  1  0
 21 48  1  0
 22 49  1  0
 23 50  1  0
 24 51  1  0
 27 52  1  0
 28 53  1  0
 31 54  1  0
M  CHG  1  13  -1
M  END
>  <meeko>  (402) 
{"free_energy": -4.01, "intermolecular_energy": -6.4, "internal_energy": -2.01, "cluster_size": 292, "cluster_id": 10, "rank_in_cluster": 291}

$$$$

     RDKit          3D

 54 57  0  0  0  0  0  0  0  0999 V2000
   14.3780   42.1490    8.8750 C   0  0  0  0  0  0  0  0  0  0  0  0
   15.7900   41.5580    8.8950 C   0  0  0  0  0  0  0  0  0  0  0  0
   15.7920   40.3800    9.6850 O   0  0  0  0  0  0  0  0  0  0  0  0
   14.8770   39.4130    9.4600 C   0  0  0  0  0  0  0  0  0  0  0  0
   14.4510   39.1310    8.3390 O   0  0  0  0  0  0  0  0  0  0  0  0
   14.5060   38.7970   10.6620 N   0  0  0  0  0  0  0  0  0  0  0  0
   14.5260   37.3400   10.8320 C   0  0  0  0  0  0  0  0  0  0  0  0
   14.0470   39.5870   11.8130 C   0  0  0  0  0  0  0  0  0  0  0  0
   12.5630   39.4400   12.0530 C   0  0  0  0  0  0  0  0  0  0  0  0
   11.5110   39.9010   11.2820 C   0  0  0  0  0  0  0  0  0  0  0  0
   11.5330   40.6400    9.9810 C   0  0  0  0  0  0  0  0  0  0  0  0
   11.7240   39.9960    8.9270 O   0  0  0  0  0  0  0  0  0  0  0  0
   11.3840   41.8810    9.9520 O   0  0  0  0  0  1  0  0  0  0  0  0
   10.2990   39.5850   11.9320 N   0  0  0  0  0  0  0  0  0  0  0  0
    8.9290   39.8630   11.4900 C   0  0  0  0  0  0  0  0  0  0  0  0
    8.5130   39.1540   10.1950 C   0  0  0  0  0  0  0  0  0  0  0  0
    8.3730   39.8770    8.9840 C   0  0  0  0  0  0  0  0  0  0  0  0
    7.9910   39.2320    7.7950 C   0  0  0  0  0  0  0  0  0  0  0  0
    7.7410   37.8500    7.7950 C   0  0  0  0  0  0  0  0  0  0  0  0
    7.8710   37.1100    8.9860 C   0  0  0  0  0  0  0  0  0  0  0  0
    7.6150   35.7230    8.9670 C   0  0  0  0  0  0  0  0  0  0  0  0
    7.7380   34.9640   10.1450 C   0  0  0  0  0  0  0  0  0  0  0  0
    8.1200   35.5910   11.3440 C   0  0  0  0  0  0  0  0  0  0  0  0
    8.3760   36.9750   11.3690 C   0  0  0  0  0  0  0  0  0  0  0  0
    8.2570   37.7550   10.1920 C   0  0  0  0  0  0  0  0  0  0  0  0
   10.5760   38.9220   13.1200 C   0  0  0  0  0  0  0  0  0  0  0  0
    9.7350   38.4110   14.1300 C   0  0  0  0  0  0  0  0  0  0  0  0
   10.2920   37.7640   15.2460 C   0  0  0  0  0  0  0  0  0  0  0  0
   11.6870   37.6280   15.3470 C   0  0  0  0  0  0  0  0  0  0  0  0
   12.2300   37.0020   16.4180 F   0  0  0  0  0  0  0  0  0  0  0  0
   12.5210   38.1440   14.3370 C   0  0  0  0  0  0  0  0  0  0  0  0
   11.9900   38.8070   13.2040 C   0  0  0  0  0  0  0  0  0  0  0  0
   14.0273   42.2958    9.9072 H   0  0  0  0  0  0  0  0  0  0  0  0
   14.3928   43.1164    8.3517 H   0  0  0  0  0  0  0  0  0  0  0  0
   13.6993   41.4594    8.3517 H   0  0  0  0  0  0  0  0  0  0  0  0
   16.1008   41.3131    7.8686 H   0  0  0  0  0  0  0  0  0  0  0  0
   16.4909   42.2903    9.3222 H   0  0  0  0  0  0  0  0  0  0  0  0
   14.5293   37.0960   11.9046 H   0  0  0  0  0  0  0  0  0  0  0  0
   13.6338   36.9034   10.3594 H   0  0  0  0  0  0  0  0  0  0  0  0
   15.4299   36.9281   10.3594 H   0  0  0  0  0  0  0  0  0  0  0  0
   14.5858   39.2501   12.7109 H   0  0  0  0  0  0  0  0  0  0  0  0
   14.2500   40.6463   11.5970 H   0  0  0  0  0  0  0  0  0  0  0  0
    8.2414   39.5475   12.2886 H   0  0  0  0  0  0  0  0  0  0  0  0
    8.8851   40.9418   11.2795 H   0  0  0  0  0  0  0  0  0  0  0  0
    8.5663   40.9598    8.9745 H   0  0  0  0  0  0  0  0  0  0  0  0
    7.8879   39.8096    6.8646 H   0  0  0  0  0  0  0  0  0  0  0  0
    7.4434   37.3453    6.8640 H   0  0  0  0  0  0  0  0  0  0  0  0
    7.3182   35.2332    8.0279 H   0  0  0  0  0  0  0  0  0  0  0  0
    7.5359   33.8829   10.1281 H   0  0  0  0  0  0  0  0  0  0  0  0
    8.2191   34.9983   12.2653 H   0  0  0  0  0  0  0  0  0  0  0  0
    8.6717   37.4564   12.3128 H   0  0  0  0  0  0  0  0  0  0  0  0
    8.6437   38.5188   14.0442 H   0  0  0  0  0  0  0  0  0  0  0  0
    9.6392   37.3659   16.0368 H   0  0  0  0  0  0  0  0  0  0  0  0
   13.6110   38.0294   14.4302 H   0  0  0  0  0  0  0  0  0  0  0  0
  1  2  1  0
  2  3  1  0
  3  4  1  0
  4  5  2  0
  4  6  1  0
  6  7  1  0
  6  8  1  0
  8  9  1  0
  9 10  2  0
 10 11  1  0
 11 12  2  0
 11 13  1  0
 10 14  1  0
 14 15  1  0
 15 16  1  0
 16 17  2  0
 17 18  1  0
 18 19  2  0
 19 20  1  0
 20 21  2  0
 21 22  1  0
 22 23  2  0
 23 24  1  0
 24 25  2  0
 14 26  1  0
 26 27  2  0
 27 28  1  0
 28 29  2  0
 29 30  1  0
 29 31  1  0
 31 32  2  0
 32  9  1  0
 25 16  1  0
 32 26  1  0
 25 20  1  0
  1 33  1  0
  1 34  1  0
  1 35  1  0
  2 36  1  0
  2 37  1  0
  7 38  1  0
  7 39  1  0
  7 40  1  0
  8 41  1  0
  8 42  1  0
 15 43  1  0
 15 44  1  0
 17 45  1  0
 18 46  1  0
 19 47  1  0
 21 48  1  0
 22 49  1  0
 23 50  1  0
 24 51  1  0
 27 52  1  0
 28 53  1  0
 31 54  1  0
M  CHG  1  13  -1
M  END
>  <meeko>  (403) 
{"free_energy": -4.58, "intermolecular_energy": -6.97, "internal_energy": -2.28, "cluster_size": 292, "cluster_id": 10, "rank_in_cluster": 285}

$$$$

     RDKit          3D

 54 57  0  0  0  0  0  0  0  0999 V2000
   15.8310   34.4410   10.3160 C   0  0  0  0  0  0  0  0  0  0  0  0
   14.8440   35.0570    9.3220 C   0  0  0  0  0  0  0  0  0  0  0  0
   14.1420   36.1140    9.9550 O   0  0  0  0  0  0  0  0  0  0  0  0
   14.7810   37.2630   10.2600 C   0  0  0  0  0  0  0  0  0  0  0  0
   15.9270   37.5210    9.8870 O   0  0  0  0  0  0  0  0  0  0  0  0
   13.9600   38.0920   11.0360 N   0  0  0  0  0  0  0  0  0  0  0  0
   14.3090   38.4710   12.4100 C   0  0  0  0  0  0  0  0  0  0  0  0
   12.6840   38.6020   10.5170 C   0  0  0  0  0  0  0  0  0  0  0  0
   11.5030   38.1130   11.3210 C   0  0  0  0  0  0  0  0  0  0  0  0
   11.1960   38.3590   12.6480 C   0  0  0  0  0  0  0  0  0  0  0  0
   11.9170   39.1990   13.6540 C   0  0  0  0  0  0  0  0  0  0  0  0
   12.0850   40.4140   13.4110 O   0  0  0  0  0  0  0  0  0  0  0  0
   12.3610   38.6920   14.7070 O   0  0  0  0  0  1  0  0  0  0  0  0
   10.0280   37.6410   12.9850 N   0  0  0  0  0  0  0  0  0  0  0  0
    9.3230   37.6010   14.2690 C   0  0  0  0  0  0  0  0  0  0  0  0
    9.3860   36.2510   14.9970 C   0  0  0  0  0  0  0  0  0  0  0  0
   10.3670   35.2870   14.6560 C   0  0  0  0  0  0  0  0  0  0  0  0
   10.4280   34.0500   15.3200 C   0  0  0  0  0  0  0  0  0  0  0  0
    9.5070   33.7520   16.3360 C   0  0  0  0  0  0  0  0  0  0  0  0
    8.5220   34.6920   16.6920 C   0  0  0  0  0  0  0  0  0  0  0  0
    7.6040   34.3760   17.7160 C   0  0  0  0  0  0  0  0  0  0  0  0
    6.6110   35.3000   18.0880 C   0  0  0  0  0  0  0  0  0  0  0  0
    6.5340   36.5440   17.4360 C   0  0  0  0  0  0  0  0  0  0  0  0
    7.4470   36.8650   16.4130 C   0  0  0  0  0  0  0  0  0  0  0  0
    8.4540   35.9470   16.0260 C   0  0  0  0  0  0  0  0  0  0  0  0
    9.5880   36.9360   11.8730 C   0  0  0  0  0  0  0  0  0  0  0  0
    8.4920   36.0680   11.6840 C   0  0  0  0  0  0  0  0  0  0  0  0
    8.2700   35.4830   10.4260 C   0  0  0  0  0  0  0  0  0  0  0  0
    9.1420   35.7700    9.3610 C   0  0  0  0  0  0  0  0  0  0  0  0
    8.9310   35.2130    8.1450 F   0  0  0  0  0  0  0  0  0  0  0  0
   10.2360   36.6340    9.5580 C   0  0  0  0  0  0  0  0  0  0  0  0
   10.4900   37.2330   10.8160 C   0  0  0  0  0  0  0  0  0  0  0  0
   15.4960   34.6501   11.3427 H   0  0  0  0  0  0  0  0  0  0  0  0
   15.8777   33.3531   10.1599 H   0  0  0  0  0  0  0  0  0  0  0  0
   16.8288   34.8770   10.1599 H   0  0  0  0  0  0  0  0  0  0  0  0
   15.3933   35.4488    8.4532 H   0  0  0  0  0  0  0  0  0  0  0  0
   14.1312   34.2896    8.9859 H   0  0  0  0  0  0  0  0  0  0  0  0
   13.7384   37.8514   13.1174 H   0  0  0  0  0  0  0  0  0  0  0  0
   15.3858   38.3145   12.5713 H   0  0  0  0  0  0  0  0  0  0  0  0
   14.0644   39.5313   12.5713 H   0  0  0  0  0  0  0  0  0  0  0  0
   12.7030   39.7014   10.5488 H   0  0  0  0  0  0  0  0  0  0  0  0
   12.5671   38.2324    9.4876 H   0  0  0  0  0  0  0  0  0  0  0  0
    9.7649   38.3648   14.9258 H   0  0  0  0  0  0  0  0  0  0  0  0
    8.2615   37.7823   14.0448 H   0  0  0  0  0  0  0  0  0  0  0  0
   11.0919   35.5104   13.8593 H   0  0  0  0  0  0  0  0  0  0  0  0
   11.1981   33.3149   15.0432 H   0  0  0  0  0  0  0  0  0  0  0  0
    9.5550   32.7830   16.8545 H   0  0  0  0  0  0  0  0  0  0  0  0
    7.6652   33.4030   18.2254 H   0  0  0  0  0  0  0  0  0  0  0  0
    5.8967   35.0506   18.8865 H   0  0  0  0  0  0  0  0  0  0  0  0
    5.7584   37.2681   17.7260 H   0  0  0  0  0  0  0  0  0  0  0  0
    7.3774   37.8400   15.9085 H   0  0  0  0  0  0  0  0  0  0  0  0
    7.8120   35.8495   12.5206 H   0  0  0  0  0  0  0  0  0  0  0  0
    7.4181   34.8037   10.2750 H   0  0  0  0  0  0  0  0  0  0  0  0
   10.9093   36.8489    8.7151 H   0  0  0  0  0  0  0  0  0  0  0  0
  1  2  1  0
  2  3  1  0
  3  4  1  0
  4  5  2  0
  4  6  1  0
  6  7  1  0
  6  8  1  0
  8  9  1  0
  9 10  2  0
 10 11  1  0
 11 12  2  0
 11 13  1  0
 10 14  1  0
 14 15  1  0
 15 16  1  0
 16 17  2  0
 17 18  1  0
 18 19  2  0
 19 20  1  0
 20 21  2  0
 21 22  1  0
 22 23  2  0
 23 24  1  0
 24 25  2  0
 14 26  1  0
 26 27  2  0
 27 28  1  0
 28 29  2  0
 29 30  1  0
 29 31  1  0
 31 32  2  0
 32  9  1  0
 25 16  1  0
 32 26  1  0
 25 20  1  0
  1 33  1  0
  1 34  1  0
  1 35  1  0
  2 36  1  0
  2 37  1  0
  7 38  1  0
  7 39  1  0
  7 40  1  0
  8 41  1  0
  8 42  1  0
 15 43  1  0
 15 44  1  0
 17 45  1  0
 18 46  1  0
 19 47  1  0
 21 48  1  0
 22 49  1  0
 23 50  1  0
 24 51  1  0
 27 52  1  0
 28 53  1  0
 31 54  1  0
M  CHG  1  13  -1
M  END
>  <meeko>  (404) 
{"free_energy": -6.95, "intermolecular_energy": -9.33, "internal_energy": -1.36, "cluster_size": 191, "cluster_id": 13, "rank_in_cluster": 4}

$$$$

     RDKit          3D

 54 57  0  0  0  0  0  0  0  0999 V2000
    8.2300   36.6260   18.6190 C   0  0  0  0  0  0  0  0  0  0  0  0
    8.6070   38.0990   18.4400 C   0  0  0  0  0  0  0  0  0  0  0  0
    9.3370   38.2510   17.2330 O   0  0  0  0  0  0  0  0  0  0  0  0
   10.6640   38.0060   17.2100 C   0  0  0  0  0  0  0  0  0  0  0  0
   11.4720   38.5810   17.9410 O   0  0  0  0  0  0  0  0  0  0  0  0
   10.9660   37.0210   16.2600 N   0  0  0  0  0  0  0  0  0  0  0  0
   10.2690   35.7310   16.2260 C   0  0  0  0  0  0  0  0  0  0  0  0
   12.0230   37.2250   15.2610 C   0  0  0  0  0  0  0  0  0  0  0  0
   11.5090   37.9050   14.0140 C   0  0  0  0  0  0  0  0  0  0  0  0
   10.3190   37.6940   13.3400 C   0  0  0  0  0  0  0  0  0  0  0  0
    9.1900   36.7670   13.6640 C   0  0  0  0  0  0  0  0  0  0  0  0
    9.2570   35.5810   13.2760 O   0  0  0  0  0  0  0  0  0  0  0  0
    8.1920   37.1770   14.2950 O   0  0  0  0  0  1  0  0  0  0  0  0
   10.2970   38.5120   12.1900 N   0  0  0  0  0  0  0  0  0  0  0  0
    9.2420   38.6360   11.1810 C   0  0  0  0  0  0  0  0  0  0  0  0
    9.0470   37.3990   10.2950 C   0  0  0  0  0  0  0  0  0  0  0  0
    9.6110   36.1500   10.6590 C   0  0  0  0  0  0  0  0  0  0  0  0
    9.4350   35.0140    9.8510 C   0  0  0  0  0  0  0  0  0  0  0  0
    8.6930   35.1050    8.6620 C   0  0  0  0  0  0  0  0  0  0  0  0
    8.1250   36.3340    8.2790 C   0  0  0  0  0  0  0  0  0  0  0  0
    7.3830   36.4080    7.0810 C   0  0  0  0  0  0  0  0  0  0  0  0
    6.8060   37.6250    6.6780 C   0  0  0  0  0  0  0  0  0  0  0  0
    6.9700   38.7730    7.4740 C   0  0  0  0  0  0  0  0  0  0  0  0
    7.7100   38.7070    8.6700 C   0  0  0  0  0  0  0  0  0  0  0  0
    8.2970   37.4880    9.0910 C   0  0  0  0  0  0  0  0  0  0  0  0
   11.4750   39.2470   12.1280 C   0  0  0  0  0  0  0  0  0  0  0  0
   11.9490   40.1850   11.1880 C   0  0  0  0  0  0  0  0  0  0  0  0
   13.1990   40.7970   11.3790 C   0  0  0  0  0  0  0  0  0  0  0  0
   13.9690   40.4710   12.5080 C   0  0  0  0  0  0  0  0  0  0  0  0
   15.1730   41.0610   12.7000 F   0  0  0  0  0  0  0  0  0  0  0  0
   13.4910   39.5310   13.4410 C   0  0  0  0  0  0  0  0  0  0  0  0
   12.2380   38.8920   13.2720 C   0  0  0  0  0  0  0  0  0  0  0  0
    8.1698   36.3907   19.6918 H   0  0  0  0  0  0  0  0  0  0  0  0
    7.2546   36.4372   18.1469 H   0  0  0  0  0  0  0  0  0  0  0  0
    8.9948   35.9918   18.1469 H   0  0  0  0  0  0  0  0  0  0  0  0
    7.6932   38.7099   18.3966 H   0  0  0  0  0  0  0  0  0  0  0  0
    9.2244   38.4280   19.2889 H   0  0  0  0  0  0  0  0  0  0  0  0
   10.0833   35.3873   17.2543 H   0  0  0  0  0  0  0  0  0  0  0  0
    9.3103   35.8460   15.6991 H   0  0  0  0  0  0  0  0  0  0  0  0
   10.8906   34.9921   15.6991 H   0  0  0  0  0  0  0  0  0  0  0  0
   12.8131   37.8490   15.7042 H   0  0  0  0  0  0  0  0  0  0  0  0
   12.4077   36.2361   14.9711 H   0  0  0  0  0  0  0  0  0  0  0  0
    8.2937   38.8367   11.7010 H   0  0  0  0  0  0  0  0  0  0  0  0
    9.5514   39.4506   10.5097 H   0  0  0  0  0  0  0  0  0  0  0  0
   10.1950   36.0692   11.5877 H   0  0  0  0  0  0  0  0  0  0  0  0
    9.8786   34.0528   10.1499 H   0  0  0  0  0  0  0  0  0  0  0  0
    8.5559   34.2152    8.0300 H   0  0  0  0  0  0  0  0  0  0  0  0
    7.2555   35.5093    6.4596 H   0  0  0  0  0  0  0  0  0  0  0  0
    6.2283   37.6792    5.7435 H   0  0  0  0  0  0  0  0  0  0  0  0
    6.5184   39.7259    7.1609 H   0  0  0  0  0  0  0  0  0  0  0  0
    7.8337   39.6113    9.2840 H   0  0  0  0  0  0  0  0  0  0  0  0
   11.3411   40.4371   10.3066 H   0  0  0  0  0  0  0  0  0  0  0  0
   13.5733   41.5284   10.6476 H   0  0  0  0  0  0  0  0  0  0  0  0
   14.1044   39.2873   14.3210 H   0  0  0  0  0  0  0  0  0  0  0  0
  1  2  1  0
  2  3  1  0
  3  4  1  0
  4  5  2  0
  4  6  1  0
  6  7  1  0
  6  8  1  0
  8  9  1  0
  9 10  2  0
 10 11  1  0
 11 12  2  0
 11 13  1  0
 10 14  1  0
 14 15  1  0
 15 16  1  0
 16 17  2  0
 17 18  1  0
 18 19  2  0
 19 20  1  0
 20 21  2  0
 21 22  1  0
 22 23  2  0
 23 24  1  0
 24 25  2  0
 14 26  1  0
 26 27  2  0
 27 28  1  0
 28 29  2  0
 29 30  1  0
 29 31  1  0
 31 32  2  0
 32  9  1  0
 25 16  1  0
 32 26  1  0
 25 20  1  0
  1 33  1  0
  1 34  1  0
  1 35  1  0
  2 36  1  0
  2 37  1  0
  7 38  1  0
  7 39  1  0
  7 40  1  0
  8 41  1  0
  8 42  1  0
 15 43  1  0
 15 44  1  0
 17 45  1  0
 18 46  1  0
 19 47  1  0
 21 48  1  0
 22 49  1  0
 23 50  1  0
 24 51  1  0
 27 52  1  0
 28 53  1  0
 31 54  1  0
M  CHG  1  13  -1
M  END
>  <meeko>  (405) 
{"free_energy": -5.61, "intermolecular_energy": -8.0, "internal_energy": -1.29, "cluster_size": 263, "cluster_id": 1, "rank_in_cluster": 245}

$$$$

     RDKit          3D

 54 57  0  0  0  0  0  0  0  0999 V2000
   10.3240   38.3170   18.2600 C   0  0  0  0  0  0  0  0  0  0  0  0
   10.1360   37.5140   16.9700 C   0  0  0  0  0  0  0  0  0  0  0  0
   11.1610   37.8580   16.0520 O   0  0  0  0  0  0  0  0  0  0  0  0
   11.6570   39.1130   16.0310 C   0  0  0  0  0  0  0  0  0  0  0  0
   12.6470   39.4610   16.6760 O   0  0  0  0  0  0  0  0  0  0  0  0
   10.8980   39.9280   15.1820 N   0  0  0  0  0  0  0  0  0  0  0  0
   11.1780   41.3580   15.0160 C   0  0  0  0  0  0  0  0  0  0  0  0
    9.7550   39.3900   14.4310 C   0  0  0  0  0  0  0  0  0  0  0  0
   10.1500   38.9130   13.0530 C   0  0  0  0  0  0  0  0  0  0  0  0
   10.0720   37.6370   12.5220 C   0  0  0  0  0  0  0  0  0  0  0  0
    9.5490   36.3780   13.1370 C   0  0  0  0  0  0  0  0  0  0  0  0
    8.3810   36.3690   13.5840 O   0  0  0  0  0  0  0  0  0  0  0  0
   10.2720   35.3620   13.2200 O   0  0  0  0  0  1  0  0  0  0  0  0
   10.6150   37.6540   11.2190 N   0  0  0  0  0  0  0  0  0  0  0  0
   10.7370   36.5440   10.2700 C   0  0  0  0  0  0  0  0  0  0  0  0
    9.4230   36.1190    9.6010 C   0  0  0  0  0  0  0  0  0  0  0  0
    8.9680   34.7790    9.6810 C   0  0  0  0  0  0  0  0  0  0  0  0
    7.7650   34.3860    9.0700 C   0  0  0  0  0  0  0  0  0  0  0  0
    6.9950   35.3250    8.3650 C   0  0  0  0  0  0  0  0  0  0  0  0
    7.4260   36.6620    8.2700 C   0  0  0  0  0  0  0  0  0  0  0  0
    6.6410   37.5920    7.5590 C   0  0  0  0  0  0  0  0  0  0  0  0
    7.0520   38.9320    7.4500 C   0  0  0  0  0  0  0  0  0  0  0  0
    8.2530   39.3450    8.0560 C   0  0  0  0  0  0  0  0  0  0  0  0
    9.0420   38.4220    8.7670 C   0  0  0  0  0  0  0  0  0  0  0  0
    8.6420   37.0680    8.8860 C   0  0  0  0  0  0  0  0  0  0  0  0
   11.0400   38.9410   10.9160 C   0  0  0  0  0  0  0  0  0  0  0  0
   11.6560   39.4810    9.7690 C   0  0  0  0  0  0  0  0  0  0  0  0
   11.9790   40.8480    9.7250 C   0  0  0  0  0  0  0  0  0  0  0  0
   11.6830   41.6690   10.8270 C   0  0  0  0  0  0  0  0  0  0  0  0
   11.9880   42.9880   10.7890 F   0  0  0  0  0  0  0  0  0  0  0  0
   11.0710   41.1210   11.9710 C   0  0  0  0  0  0  0  0  0  0  0  0
   10.7400   39.7470   12.0470 C   0  0  0  0  0  0  0  0  0  0  0  0
   10.1698   37.6585   19.1275 H   0  0  0  0  0  0  0  0  0  0  0  0
   11.3431   38.7300   18.2896 H   0  0  0  0  0  0  0  0  0  0  0  0
    9.5941   39.1394   18.2896 H   0  0  0  0  0  0  0  0  0  0  0  0
   10.1896   36.4386   17.1951 H   0  0  0  0  0  0  0  0  0  0  0  0
    9.1543   37.7452   16.5309 H   0  0  0  0  0  0  0  0  0  0  0  0
   11.2706   41.8307   16.0049 H   0  0  0  0  0  0  0  0  0  0  0  0
   12.1181   41.4853   14.4593 H   0  0  0  0  0  0  0  0  0  0  0  0
   10.3553   41.8305   14.4593 H   0  0  0  0  0  0  0  0  0  0  0  0
    9.3305   38.5434   14.9906 H   0  0  0  0  0  0  0  0  0  0  0  0
    9.0199   40.1993   14.3099 H   0  0  0  0  0  0  0  0  0  0  0  0
   11.4408   36.8454    9.4802 H   0  0  0  0  0  0  0  0  0  0  0  0
   11.0816   35.6766   10.8522 H   0  0  0  0  0  0  0  0  0  0  0  0
    9.5653   34.0357   10.2294 H   0  0  0  0  0  0  0  0  0  0  0  0
    7.4263   33.3421    9.1441 H   0  0  0  0  0  0  0  0  0  0  0  0
    6.0541   35.0157    7.8864 H   0  0  0  0  0  0  0  0  0  0  0  0
    5.7019   37.2676    7.0869 H   0  0  0  0  0  0  0  0  0  0  0  0
    6.4373   39.6547    6.8933 H   0  0  0  0  0  0  0  0  0  0  0  0
    8.5762   40.3932    7.9736 H   0  0  0  0  0  0  0  0  0  0  0  0
    9.9797   38.7553    9.2356 H   0  0  0  0  0  0  0  0  0  0  0  0
   11.8836   38.8333    8.9095 H   0  0  0  0  0  0  0  0  0  0  0  0
   12.4611   41.2735    8.8325 H   0  0  0  0  0  0  0  0  0  0  0  0
   10.8450   41.7761   12.8253 H   0  0  0  0  0  0  0  0  0  0  0  0
  1  2  1  0
  2  3  1  0
  3  4  1  0
  4  5  2  0
  4  6  1  0
  6  7  1  0
  6  8  1  0
  8  9  1  0
  9 10  2  0
 10 11  1  0
 11 12  2  0
 11 13  1  0
 10 14  1  0
 14 15  1  0
 15 16  1  0
 16 17  2  0
 17 18  1  0
 18 19  2  0
 19 20  1  0
 20 21  2  0
 21 22  1  0
 22 23  2  0
 23 24  1  0
 24 25  2  0
 14 26  1  0
 26 27  2  0
 27 28  1  0
 28 29  2  0
 29 30  1  0
 29 31  1  0
 31 32  2  0
 32  9  1  0
 25 16  1  0
 32 26  1  0
 25 20  1  0
  1 33  1  0
  1 34  1  0
  1 35  1  0
  2 36  1  0
  2 37  1  0
  7 38  1  0
  7 39  1  0
  7 40  1  0
  8 41  1  0
  8 42  1  0
 15 43  1  0
 15 44  1  0
 17 45  1  0
 18 46  1  0
 19 47  1  0
 21 48  1  0
 22 49  1  0
 23 50  1  0
 24 51  1  0
 27 52  1  0
 28 53  1  0
 31 54  1  0
M  CHG  1  13  -1
M  END
>  <meeko>  (406) 
{"free_energy": -5.45, "intermolecular_energy": -7.84, "internal_energy": -1.72, "cluster_size": 283, "cluster_id": 7, "rank_in_cluster": 235}

$$$$

     RDKit          3D

 54 57  0  0  0  0  0  0  0  0999 V2000
   11.4770   32.8260   14.6500 C   0  0  0  0  0  0  0  0  0  0  0  0
   11.5480   32.9340   16.1760 C   0  0  0  0  0  0  0  0  0  0  0  0
   11.2150   34.2560   16.5660 O   0  0  0  0  0  0  0  0  0  0  0  0
   10.7070   35.1210   15.6620 C   0  0  0  0  0  0  0  0  0  0  0  0
   11.3950   35.7060   14.8240 O   0  0  0  0  0  0  0  0  0  0  0  0
    9.3200   35.2380   15.8190 N   0  0  0  0  0  0  0  0  0  0  0  0
    8.6550   34.9750   17.1000 C   0  0  0  0  0  0  0  0  0  0  0  0
    8.4540   35.6060   14.6910 C   0  0  0  0  0  0  0  0  0  0  0  0
    9.0310   36.7360   13.8710 C   0  0  0  0  0  0  0  0  0  0  0  0
    9.5950   37.9220   14.3070 C   0  0  0  0  0  0  0  0  0  0  0  0
    9.8300   38.4120   15.7010 C   0  0  0  0  0  0  0  0  0  0  0  0
    8.9030   38.3160   16.5340 O   0  0  0  0  0  0  0  0  0  0  0  0
   10.9250   38.9240   16.0200 O   0  0  0  0  0  1  0  0  0  0  0  0
    9.9370   38.7020   13.1810 N   0  0  0  0  0  0  0  0  0  0  0  0
   10.5680   40.0250   13.1480 C   0  0  0  0  0  0  0  0  0  0  0  0
    9.5890   41.2040   13.0610 C   0  0  0  0  0  0  0  0  0  0  0  0
    8.8700   41.4640   11.8680 C   0  0  0  0  0  0  0  0  0  0  0  0
    7.9720   42.5420   11.7840 C   0  0  0  0  0  0  0  0  0  0  0  0
    7.7790   43.3830   12.8920 C   0  0  0  0  0  0  0  0  0  0  0  0
    8.4830   43.1460   14.0880 C   0  0  0  0  0  0  0  0  0  0  0  0
    8.2770   44.0010   15.1910 C   0  0  0  0  0  0  0  0  0  0  0  0
    8.9690   43.7840   16.3950 C   0  0  0  0  0  0  0  0  0  0  0  0
    9.8710   42.7100   16.4990 C   0  0  0  0  0  0  0  0  0  0  0  0
   10.0820   41.8530   15.4020 C   0  0  0  0  0  0  0  0  0  0  0  0
    9.3920   42.0570   14.1810 C   0  0  0  0  0  0  0  0  0  0  0  0
    9.5910   38.0150   12.0250 C   0  0  0  0  0  0  0  0  0  0  0  0
    9.7050   38.3530   10.6610 C   0  0  0  0  0  0  0  0  0  0  0  0
    9.2740   37.4480    9.6760 C   0  0  0  0  0  0  0  0  0  0  0  0
    8.7330   36.2080   10.0590 C   0  0  0  0  0  0  0  0  0  0  0  0
    8.3190   35.3300    9.1140 F   0  0  0  0  0  0  0  0  0  0  0  0
    8.6180   35.8790   11.4230 C   0  0  0  0  0  0  0  0  0  0  0  0
    9.0370   36.7730   12.4380 C   0  0  0  0  0  0  0  0  0  0  0  0
   10.8923   31.9366   14.3722 H   0  0  0  0  0  0  0  0  0  0  0  0
   10.9934   33.7253   14.2409 H   0  0  0  0  0  0  0  0  0  0  0  0
   12.4943   32.7385   14.2409 H   0  0  0  0  0  0  0  0  0  0  0  0
   10.8371   32.2269   16.6283 H   0  0  0  0  0  0  0  0  0  0  0  0
   12.5660   32.6937   16.5165 H   0  0  0  0  0  0  0  0  0  0  0  0
    9.3309   35.2423   17.9257 H   0  0  0  0  0  0  0  0  0  0  0  0
    7.7374   35.5779   17.1674 H   0  0  0  0  0  0  0  0  0  0  0  0
    8.3981   33.9076   17.1674 H   0  0  0  0  0  0  0  0  0  0  0  0
    8.3259   34.7273   14.0418 H   0  0  0  0  0  0  0  0  0  0  0  0
    7.4916   35.9452   15.1019 H   0  0  0  0  0  0  0  0  0  0  0  0
   11.1643   40.1425   14.0648 H   0  0  0  0  0  0  0  0  0  0  0  0
   11.1725   40.0565   12.2295 H   0  0  0  0  0  0  0  0  0  0  0  0
    9.0169   40.8122   10.9942 H   0  0  0  0  0  0  0  0  0  0  0  0
    7.4204   42.7269   10.8504 H   0  0  0  0  0  0  0  0  0  0  0  0
    7.0773   44.2275   12.8254 H   0  0  0  0  0  0  0  0  0  0  0  0
    7.5718   44.8411   15.1084 H   0  0  0  0  0  0  0  0  0  0  0  0
    8.8056   44.4522   17.2534 H   0  0  0  0  0  0  0  0  0  0  0  0
   10.4135   42.5389   17.4405 H   0  0  0  0  0  0  0  0  0  0  0  0
   10.7900   41.0161   15.4936 H   0  0  0  0  0  0  0  0  0  0  0  0
   10.1308   39.3240   10.3681 H   0  0  0  0  0  0  0  0  0  0  0  0
    9.3595   37.7084    8.6107 H   0  0  0  0  0  0  0  0  0  0  0  0
    8.1928   34.9050   11.7068 H   0  0  0  0  0  0  0  0  0  0  0  0
  1  2  1  0
  2  3  1  0
  3  4  1  0
  4  5  2  0
  4  6  1  0
  6  7  1  0
  6  8  1  0
  8  9  1  0
  9 10  2  0
 10 11  1  0
 11 12  2  0
 11 13  1  0
 10 14  1  0
 14 15  1  0
 15 16  1  0
 16 17  2  0
 17 18  1  0
 18 19  2  0
 19 20  1  0
 20 21  2  0
 21 22  1  0
 22 23  2  0
 23 24  1  0
 24 25  2  0
 14 26  1  0
 26 27  2  0
 27 28  1  0
 28 29  2  0
 29 30  1  0
 29 31  1  0
 31 32  2  0
 32  9  1  0
 25 16  1  0
 32 26  1  0
 25 20  1  0
  1 33  1  0
  1 34  1  0
  1 35  1  0
  2 36  1  0
  2 37  1  0
  7 38  1  0
  7 39  1  0
  7 40  1  0
  8 41  1  0
  8 42  1  0
 15 43  1  0
 15 44  1  0
 17 45  1  0
 18 46  1  0
 19 47  1  0
 21 48  1  0
 22 49  1  0
 23 50  1  0
 24 51  1  0
 27 52  1  0
 28 53  1  0
 31 54  1  0
M  CHG  1  13  -1
M  END
>  <meeko>  (407) 
{"free_energy": -5.2, "intermolecular_energy": -7.58, "internal_energy": -1.85, "cluster_size": 51, "cluster_id": 68, "rank_in_cluster": 23}

$$$$

     RDKit          3D

 54 57  0  0  0  0  0  0  0  0999 V2000
    6.2390   36.3310   17.8570 C   0  0  0  0  0  0  0  0  0  0  0  0
    6.6570   34.8790   17.6110 C   0  0  0  0  0  0  0  0  0  0  0  0
    7.8740   34.6210   18.2930 O   0  0  0  0  0  0  0  0  0  0  0  0
    9.0000   35.2750   17.9370 C   0  0  0  0  0  0  0  0  0  0  0  0
    9.2990   36.3920   18.3630 O   0  0  0  0  0  0  0  0  0  0  0  0
    9.7530   34.5050   17.0410 N   0  0  0  0  0  0  0  0  0  0  0  0
    9.2750   33.2170   16.5260 C   0  0  0  0  0  0  0  0  0  0  0  0
   11.0820   34.9410   16.5920 C   0  0  0  0  0  0  0  0  0  0  0  0
   11.0270   36.2270   15.8030 C   0  0  0  0  0  0  0  0  0  0  0  0
   10.0140   36.7000   14.9860 C   0  0  0  0  0  0  0  0  0  0  0  0
    8.6790   36.0990   14.6770 C   0  0  0  0  0  0  0  0  0  0  0  0
    8.6240   35.1330   13.8860 O   0  0  0  0  0  0  0  0  0  0  0  0
    7.6380   36.5680   15.1860 O   0  0  0  0  0  1  0  0  0  0  0  0
   10.4310   37.9160   14.4040 N   0  0  0  0  0  0  0  0  0  0  0  0
    9.6930   38.7840   13.4820 C   0  0  0  0  0  0  0  0  0  0  0  0
   10.1630   38.7220   12.0220 C   0  0  0  0  0  0  0  0  0  0  0  0
   10.1330   37.5020   11.3010 C   0  0  0  0  0  0  0  0  0  0  0  0
   10.5630   37.4410    9.9640 C   0  0  0  0  0  0  0  0  0  0  0  0
   11.0320   38.5990    9.3240 C   0  0  0  0  0  0  0  0  0  0  0  0
   11.0730   39.8220   10.0190 C   0  0  0  0  0  0  0  0  0  0  0  0
   11.5480   40.9750    9.3600 C   0  0  0  0  0  0  0  0  0  0  0  0
   11.5980   42.2080   10.0360 C   0  0  0  0  0  0  0  0  0  0  0  0
   11.1720   42.2900   11.3730 C   0  0  0  0  0  0  0  0  0  0  0  0
   10.6970   41.1420   12.0370 C   0  0  0  0  0  0  0  0  0  0  0  0
   10.6400   39.8930   11.3720 C   0  0  0  0  0  0  0  0  0  0  0  0
   11.7110   38.2220   14.8480 C   0  0  0  0  0  0  0  0  0  0  0  0
   12.5720   39.3010   14.5620 C   0  0  0  0  0  0  0  0  0  0  0  0
   13.8370   39.3680   15.1700 C   0  0  0  0  0  0  0  0  0  0  0  0
   14.2350   38.3590   16.0630 C   0  0  0  0  0  0  0  0  0  0  0  0
   15.4510   38.4200   16.6560 F   0  0  0  0  0  0  0  0  0  0  0  0
   13.3700   37.2820   16.3420 C   0  0  0  0  0  0  0  0  0  0  0  0
   12.0930   37.1840   15.7390 C   0  0  0  0  0  0  0  0  0  0  0  0
    6.1850   36.5186   18.9395 H   0  0  0  0  0  0  0  0  0  0  0  0
    6.9789   37.0073   17.4041 H   0  0  0  0  0  0  0  0  0  0  0  0
    5.2527   36.5104   17.4041 H   0  0  0  0  0  0  0  0  0  0  0  0
    5.8748   34.2026   17.9860 H   0  0  0  0  0  0  0  0  0  0  0  0
    6.7957   34.7124   16.5326 H   0  0  0  0  0  0  0  0  0  0  0  0
    9.0289   32.5538   17.3684 H   0  0  0  0  0  0  0  0  0  0  0  0
    8.3768   33.3782   15.9117 H   0  0  0  0  0  0  0  0  0  0  0  0
   10.0609   32.7533   15.9117 H   0  0  0  0  0  0  0  0  0  0  0  0
   11.7207   35.0944   17.4743 H   0  0  0  0  0  0  0  0  0  0  0  0
   11.4878   34.1592   15.9332 H   0  0  0  0  0  0  0  0  0  0  0  0
    8.6328   38.4924   13.5126 H   0  0  0  0  0  0  0  0  0  0  0  0
    9.8701   39.8156   13.8202 H   0  0  0  0  0  0  0  0  0  0  0  0
    9.7679   36.5895   11.7949 H   0  0  0  0  0  0  0  0  0  0  0  0
   10.5320   36.4858    9.4193 H   0  0  0  0  0  0  0  0  0  0  0  0
   11.3680   38.5504    8.2777 H   0  0  0  0  0  0  0  0  0  0  0  0
   11.8807   40.9100    8.3135 H   0  0  0  0  0  0  0  0  0  0  0  0
   11.9695   43.1054    9.5196 H   0  0  0  0  0  0  0  0  0  0  0  0
   11.2096   43.2535   11.9024 H   0  0  0  0  0  0  0  0  0  0  0  0
   10.3667   41.2166   13.0836 H   0  0  0  0  0  0  0  0  0  0  0  0
   12.2540   40.0893   13.8639 H   0  0  0  0  0  0  0  0  0  0  0  0
   14.5129   40.2069   14.9477 H   0  0  0  0  0  0  0  0  0  0  0  0
   13.6944   36.4999   17.0442 H   0  0  0  0  0  0  0  0  0  0  0  0
  1  2  1  0
  2  3  1  0
  3  4  1  0
  4  5  2  0
  4  6  1  0
  6  7  1  0
  6  8  1  0
  8  9  1  0
  9 10  2  0
 10 11  1  0
 11 12  2  0
 11 13  1  0
 10 14  1  0
 14 15  1  0
 15 16  1  0
 16 17  2  0
 17 18  1  0
 18 19  2  0
 19 20  1  0
 20 21  2  0
 21 22  1  0
 22 23  2  0
 23 24  1  0
 24 25  2  0
 14 26  1  0
 26 27  2  0
 27 28  1  0
 28 29  2  0
 29 30  1  0
 29 31  1  0
 31 32  2  0
 32  9  1  0
 25 16  1  0
 32 26  1  0
 25 20  1  0
  1 33  1  0
  1 34  1  0
  1 35  1  0
  2 36  1  0
  2 37  1  0
  7 38  1  0
  7 39  1  0
  7 40  1  0
  8 41  1  0
  8 42  1  0
 15 43  1  0
 15 44  1  0
 17 45  1  0
 18 46  1  0
 19 47  1  0
 21 48  1  0
 22 49  1  0
 23 50  1  0
 24 51  1  0
 27 52  1  0
 28 53  1  0
 31 54  1  0
M  CHG  1  13  -1
M  END
>  <meeko>  (408) 
{"free_energy": -5.53, "intermolecular_energy": -7.91, "internal_energy": -2.11, "cluster_size": 52, "cluster_id": 33, "rank_in_cluster": 17}

$$$$

     RDKit          3D

 54 57  0  0  0  0  0  0  0  0999 V2000
   19.0050   40.0540   12.6560 C   0  0  0  0  0  0  0  0  0  0  0  0
   18.5330   39.4930   11.3130 C   0  0  0  0  0  0  0  0  0  0  0  0
   17.9140   40.5280   10.5660 O   0  0  0  0  0  0  0  0  0  0  0  0
   16.7720   40.2830    9.8890 C   0  0  0  0  0  0  0  0  0  0  0  0
   16.5390   40.7340    8.7670 O   0  0  0  0  0  0  0  0  0  0  0  0
   15.9240   39.4570   10.6390 N   0  0  0  0  0  0  0  0  0  0  0  0
   15.6520   38.0670   10.2560 C   0  0  0  0  0  0  0  0  0  0  0  0
   15.2390   39.9560   11.8380 C   0  0  0  0  0  0  0  0  0  0  0  0
   13.7700   40.2090   11.5940 C   0  0  0  0  0  0  0  0  0  0  0  0
   12.6810   39.7670   12.3250 C   0  0  0  0  0  0  0  0  0  0  0  0
   12.6410   38.9470   13.5750 C   0  0  0  0  0  0  0  0  0  0  0  0
   13.6990   38.4230   13.9840 O   0  0  0  0  0  0  0  0  0  0  0  0
   11.5650   38.7750   14.1890 O   0  0  0  0  0  1  0  0  0  0  0  0
   11.4990   40.1980   11.6840 N   0  0  0  0  0  0  0  0  0  0  0  0
   10.1090   39.9780   12.0940 C   0  0  0  0  0  0  0  0  0  0  0  0
    9.5430   38.5970   11.7390 C   0  0  0  0  0  0  0  0  0  0  0  0
    9.6700   37.5070   12.6370 C   0  0  0  0  0  0  0  0  0  0  0  0
    9.1520   36.2400   12.3150 C   0  0  0  0  0  0  0  0  0  0  0  0
    8.5010   36.0390   11.0880 C   0  0  0  0  0  0  0  0  0  0  0  0
    8.3640   37.1040   10.1790 C   0  0  0  0  0  0  0  0  0  0  0  0
    7.7070   36.8830    8.9510 C   0  0  0  0  0  0  0  0  0  0  0  0
    7.5590   37.9330    8.0270 C   0  0  0  0  0  0  0  0  0  0  0  0
    8.0690   39.2080    8.3300 C   0  0  0  0  0  0  0  0  0  0  0  0
    8.7270   39.4350    9.5540 C   0  0  0  0  0  0  0  0  0  0  0  0
    8.8840   38.3890   10.4970 C   0  0  0  0  0  0  0  0  0  0  0  0
   11.8320   40.9160   10.5430 C   0  0  0  0  0  0  0  0  0  0  0  0
   11.0370   41.5400    9.5600 C   0  0  0  0  0  0  0  0  0  0  0  0
   11.6480   42.2200    8.4930 C   0  0  0  0  0  0  0  0  0  0  0  0
   13.0500   42.2760    8.4140 C   0  0  0  0  0  0  0  0  0  0  0  0
   13.6450   42.9340    7.3900 F   0  0  0  0  0  0  0  0  0  0  0  0
   13.8380   41.6470    9.3970 C   0  0  0  0  0  0  0  0  0  0  0  0
   13.2510   40.9480   10.4800 C   0  0  0  0  0  0  0  0  0  0  0  0
   18.5321   39.4919   13.4748 H   0  0  0  0  0  0  0  0  0  0  0  0
   20.0984   39.9585   12.7294 H   0  0  0  0  0  0  0  0  0  0  0  0
   18.7239   41.1149   12.7294 H   0  0  0  0  0  0  0  0  0  0  0  0
   19.3959   39.1017   10.7542 H   0  0  0  0  0  0  0  0  0  0  0  0
   17.8122   38.6801   11.4852 H   0  0  0  0  0  0  0  0  0  0  0  0
   15.5320   37.4540   11.1614 H   0  0  0  0  0  0  0  0  0  0  0  0
   14.7286   38.0250    9.6597 H   0  0  0  0  0  0  0  0  0  0  0  0
   16.4914   37.6800    9.6597 H   0  0  0  0  0  0  0  0  0  0  0  0
   15.3413   39.2104   12.6402 H   0  0  0  0  0  0  0  0  0  0  0  0
   15.7038   40.9128   12.1181 H   0  0  0  0  0  0  0  0  0  0  0  0
   10.0509   40.1011   13.1855 H   0  0  0  0  0  0  0  0  0  0  0  0
    9.5039   40.7115   11.5410 H   0  0  0  0  0  0  0  0  0  0  0  0
   10.1813   37.6547   13.5997 H   0  0  0  0  0  0  0  0  0  0  0  0
    9.2570   35.4063   13.0249 H   0  0  0  0  0  0  0  0  0  0  0  0
    8.0972   35.0471   10.8366 H   0  0  0  0  0  0  0  0  0  0  0  0
    7.3086   35.8853    8.7148 H   0  0  0  0  0  0  0  0  0  0  0  0
    7.0458   37.7574    7.0701 H   0  0  0  0  0  0  0  0  0  0  0  0
    7.9536   40.0304    7.6087 H   0  0  0  0  0  0  0  0  0  0  0  0
    9.1236   40.4356    9.7807 H   0  0  0  0  0  0  0  0  0  0  0  0
    9.9401   41.4946    9.6283 H   0  0  0  0  0  0  0  0  0  0  0  0
   11.0315   42.7065    7.7227 H   0  0  0  0  0  0  0  0  0  0  0  0
   14.9342   41.6997    9.3221 H   0  0  0  0  0  0  0  0  0  0  0  0
  1  2  1  0
  2  3  1  0
  3  4  1  0
  4  5  2  0
  4  6  1  0
  6  7  1  0
  6  8  1  0
  8  9  1  0
  9 10  2  0
 10 11  1  0
 11 12  2  0
 11 13  1  0
 10 14  1  0
 14 15  1  0
 15 16  1  0
 16 17  2  0
 17 18  1  0
 18 19  2  0
 19 20  1  0
 20 21  2  0
 21 22  1  0
 22 23  2  0
 23 24  1  0
 24 25  2  0
 14 26  1  0
 26 27  2  0
 27 28  1  0
 28 29  2  0
 29 30  1  0
 29 31  1  0
 31 32  2  0
 32  9  1  0
 25 16  1  0
 32 26  1  0
 25 20  1  0
  1 33  1  0
  1 34  1  0
  1 35  1  0
  2 36  1  0
  2 37  1  0
  7 38  1  0
  7 39  1  0
  7 40  1  0
  8 41  1  0
  8 42  1  0
 15 43  1  0
 15 44  1  0
 17 45  1  0
 18 46  1  0
 19 47  1  0
 21 48  1  0
 22 49  1  0
 23 50  1  0
 24 51  1  0
 27 52  1  0
 28 53  1  0
 31 54  1  0
M  CHG  1  13  -1
M  END
>  <meeko>  (409) 
{"free_energy": -5.35, "intermolecular_energy": -7.74, "internal_energy": -1.74, "cluster_size": 81, "cluster_id": 9, "rank_in_cluster": 68}

$$$$

     RDKit          3D

 54 57  0  0  0  0  0  0  0  0999 V2000
   12.9910   43.4940    9.4750 C   0  0  0  0  0  0  0  0  0  0  0  0
   12.2790   42.1390    9.4550 C   0  0  0  0  0  0  0  0  0  0  0  0
   11.9620   41.7590   10.7850 O   0  0  0  0  0  0  0  0  0  0  0  0
   10.9350   42.3500   11.4310 C   0  0  0  0  0  0  0  0  0  0  0  0
   11.0550   43.3790   12.0980 O   0  0  0  0  0  0  0  0  0  0  0  0
    9.7480   41.6350   11.2230 N   0  0  0  0  0  0  0  0  0  0  0  0
    8.5620   41.8310   12.0650 C   0  0  0  0  0  0  0  0  0  0  0  0
    9.6420   40.6250   10.1620 C   0  0  0  0  0  0  0  0  0  0  0  0
    9.5960   39.2190   10.7120 C   0  0  0  0  0  0  0  0  0  0  0  0
   10.2650   38.6930   11.8030 C   0  0  0  0  0  0  0  0  0  0  0  0
   11.1920   39.3630   12.7670 C   0  0  0  0  0  0  0  0  0  0  0  0
   12.4220   39.1750   12.6470 O   0  0  0  0  0  0  0  0  0  0  0  0
   10.7440   40.0820   13.6870 O   0  0  0  0  0  1  0  0  0  0  0  0
    9.9640   37.3180   11.9010 N   0  0  0  0  0  0  0  0  0  0  0  0
   10.4310   36.3520   12.9000 C   0  0  0  0  0  0  0  0  0  0  0  0
    9.7280   36.4400   14.2610 C   0  0  0  0  0  0  0  0  0  0  0  0
    8.3370   36.1930   14.3770 C   0  0  0  0  0  0  0  0  0  0  0  0
    7.6890   36.2720   15.6210 C   0  0  0  0  0  0  0  0  0  0  0  0
    8.4200   36.6030   16.7740 C   0  0  0  0  0  0  0  0  0  0  0  0
    9.8020   36.8550   16.6840 C   0  0  0  0  0  0  0  0  0  0  0  0
   10.5200   37.1860   17.8520 C   0  0  0  0  0  0  0  0  0  0  0  0
   11.9010   37.4420   17.7860 C   0  0  0  0  0  0  0  0  0  0  0  0
   12.5680   37.3670   16.5500 C   0  0  0  0  0  0  0  0  0  0  0  0
   11.8570   37.0370   15.3810 C   0  0  0  0  0  0  0  0  0  0  0  0
   10.4650   36.7760   15.4290 C   0  0  0  0  0  0  0  0  0  0  0  0
    9.1010   36.9640   10.8710 C   0  0  0  0  0  0  0  0  0  0  0  0
    8.5190   35.7290   10.5160 C   0  0  0  0  0  0  0  0  0  0  0  0
    7.6590   35.6540    9.4080 C   0  0  0  0  0  0  0  0  0  0  0  0
    7.3810   36.8120    8.6610 C   0  0  0  0  0  0  0  0  0  0  0  0
    6.5490   36.7470    7.5950 F   0  0  0  0  0  0  0  0  0  0  0  0
    7.9690   38.0400    9.0200 C   0  0  0  0  0  0  0  0  0  0  0  0
    8.8460   38.1460   10.1270 C   0  0  0  0  0  0  0  0  0  0  0  0
   13.1552   43.8066   10.5168 H   0  0  0  0  0  0  0  0  0  0  0  0
   13.9598   43.4068    8.9613 H   0  0  0  0  0  0  0  0  0  0  0  0
   12.3696   44.2423    8.9613 H   0  0  0  0  0  0  0  0  0  0  0  0
   11.3543   42.2179    8.8646 H   0  0  0  0  0  0  0  0  0  0  0  0
   12.9363   41.3827    9.0012 H   0  0  0  0  0  0  0  0  0  0  0  0
    8.8527   41.7830   13.1248 H   0  0  0  0  0  0  0  0  0  0  0  0
    8.1186   42.8146   11.8506 H   0  0  0  0  0  0  0  0  0  0  0  0
    7.8257   41.0424   11.8506 H   0  0  0  0  0  0  0  0  0  0  0  0
    8.7224   40.8105    9.5876 H   0  0  0  0  0  0  0  0  0  0  0  0
   10.5361   40.7089    9.5267 H   0  0  0  0  0  0  0  0  0  0  0  0
   10.2719   35.3406   12.4979 H   0  0  0  0  0  0  0  0  0  0  0  0
   11.4901   36.5856   13.0839 H   0  0  0  0  0  0  0  0  0  0  0  0
    7.7560   35.9355   13.4791 H   0  0  0  0  0  0  0  0  0  0  0  0
    6.6092   36.0747   15.6922 H   0  0  0  0  0  0  0  0  0  0  0  0
    7.9122   36.6653   17.7478 H   0  0  0  0  0  0  0  0  0  0  0  0
    9.9976   37.2441   18.8183 H   0  0  0  0  0  0  0  0  0  0  0  0
   12.4582   37.7002   18.6986 H   0  0  0  0  0  0  0  0  0  0  0  0
   13.6484   37.5668   16.4968 H   0  0  0  0  0  0  0  0  0  0  0  0
   12.3879   36.9811   14.4192 H   0  0  0  0  0  0  0  0  0  0  0  0
    8.7382   34.8266   11.1056 H   0  0  0  0  0  0  0  0  0  0  0  0
    7.2047   34.6927    9.1258 H   0  0  0  0  0  0  0  0  0  0  0  0
    7.7419   38.9380    8.4268 H   0  0  0  0  0  0  0  0  0  0  0  0
  1  2  1  0
  2  3  1  0
  3  4  1  0
  4  5  2  0
  4  6  1  0
  6  7  1  0
  6  8  1  0
  8  9  1  0
  9 10  2  0
 10 11  1  0
 11 12  2  0
 11 13  1  0
 10 14  1  0
 14 15  1  0
 15 16  1  0
 16 17  2  0
 17 18  1  0
 18 19  2  0
 19 20  1  0
 20 21  2  0
 21 22  1  0
 22 23  2  0
 23 24  1  0
 24 25  2  0
 14 26  1  0
 26 27  2  0
 27 28  1  0
 28 29  2  0
 29 30  1  0
 29 31  1  0
 31 32  2  0
 32  9  1  0
 25 16  1  0
 32 26  1  0
 25 20  1  0
  1 33  1  0
  1 34  1  0
  1 35  1  0
  2 36  1  0
  2 37  1  0
  7 38  1  0
  7 39  1  0
  7 40  1  0
  8 41  1  0
  8 42  1  0
 15 43  1  0
 15 44  1  0
 17 45  1  0
 18 46  1  0
 19 47  1  0
 21 48  1  0
 22 49  1  0
 23 50  1  0
 24 51  1  0
 27 52  1  0
 28 53  1  0
 31 54  1  0
M  CHG  1  13  -1
M  END
>  <meeko>  (410) 
{"free_energy": -5.26, "intermolecular_energy": -7.65, "internal_energy": -1.83, "cluster_size": 253, "cluster_id": 8, "rank_in_cluster": 240}

$$$$

     RDKit          3D

 54 57  0  0  0  0  0  0  0  0999 V2000
    7.7130   35.1330    7.9240 C   0  0  0  0  0  0  0  0  0  0  0  0
    7.3080   36.5910    7.6910 C   0  0  0  0  0  0  0  0  0  0  0  0
    7.5710   37.3420    8.8660 O   0  0  0  0  0  0  0  0  0  0  0  0
    8.2200   38.5220    8.7830 C   0  0  0  0  0  0  0  0  0  0  0  0
    7.7680   39.5050    8.1920 O   0  0  0  0  0  0  0  0  0  0  0  0
    9.4460   38.4570    9.4580 N   0  0  0  0  0  0  0  0  0  0  0  0
   10.0610   37.1810    9.8380 C   0  0  0  0  0  0  0  0  0  0  0  0
   10.1670   39.6770    9.8470 C   0  0  0  0  0  0  0  0  0  0  0  0
   11.0720   39.4510   11.0360 C   0  0  0  0  0  0  0  0  0  0  0  0
   10.8400   39.7420   12.3690 C   0  0  0  0  0  0  0  0  0  0  0  0
    9.6260   40.3240   13.0210 C   0  0  0  0  0  0  0  0  0  0  0  0
    9.3730   40.0120   14.2050 O   0  0  0  0  0  0  0  0  0  0  0  0
    8.8700   41.0920   12.3880 O   0  0  0  0  0  1  0  0  0  0  0  0
   11.9950   39.4170   13.1120 N   0  0  0  0  0  0  0  0  0  0  0  0
   12.2140   39.5420   14.5560 C   0  0  0  0  0  0  0  0  0  0  0  0
   12.4500   38.2150   15.2900 C   0  0  0  0  0  0  0  0  0  0  0  0
   13.5880   38.0340   16.1150 C   0  0  0  0  0  0  0  0  0  0  0  0
   13.8070   36.8200   16.7890 C   0  0  0  0  0  0  0  0  0  0  0  0
   12.8930   35.7630   16.6480 C   0  0  0  0  0  0  0  0  0  0  0  0
   11.7560   35.9180   15.8330 C   0  0  0  0  0  0  0  0  0  0  0  0
   10.8490   34.8460   15.7030 C   0  0  0  0  0  0  0  0  0  0  0  0
    9.7070   34.9780   14.8940 C   0  0  0  0  0  0  0  0  0  0  0  0
    9.4690   36.1840   14.2120 C   0  0  0  0  0  0  0  0  0  0  0  0
   10.3710   37.2580   14.3370 C   0  0  0  0  0  0  0  0  0  0  0  0
   11.5260   37.1430   15.1480 C   0  0  0  0  0  0  0  0  0  0  0  0
   12.9670   38.9190   12.2530 C   0  0  0  0  0  0  0  0  0  0  0  0
   14.2840   38.4700   12.4840 C   0  0  0  0  0  0  0  0  0  0  0  0
   15.0610   38.0000   11.4120 C   0  0  0  0  0  0  0  0  0  0  0  0
   14.5190   37.9780   10.1150 C   0  0  0  0  0  0  0  0  0  0  0  0
   15.2620   37.5220    9.0790 F   0  0  0  0  0  0  0  0  0  0  0  0
   13.2050   38.4310    9.8930 C   0  0  0  0  0  0  0  0  0  0  0  0
   12.3990   38.9170   10.9510 C   0  0  0  0  0  0  0  0  0  0  0  0
    7.7677   34.9359    9.0048 H   0  0  0  0  0  0  0  0  0  0  0  0
    6.9657   34.4674    7.4673 H   0  0  0  0  0  0  0  0  0  0  0  0
    8.6965   34.9482    7.4673 H   0  0  0  0  0  0  0  0  0  0  0  0
    7.8879   37.0044    6.8527 H   0  0  0  0  0  0  0  0  0  0  0  0
    6.2356   36.6429    7.4517 H   0  0  0  0  0  0  0  0  0  0  0  0
   10.0981   37.1041   10.9347 H   0  0  0  0  0  0  0  0  0  0  0  0
    9.4640   36.3510    9.4322 H   0  0  0  0  0  0  0  0  0  0  0  0
   11.0822   37.1309    9.4322 H   0  0  0  0  0  0  0  0  0  0  0  0
   10.7774   40.0141    8.9963 H   0  0  0  0  0  0  0  0  0  0  0  0
    9.4210   40.4343   10.1297 H   0  0  0  0  0  0  0  0  0  0  0  0
   13.0949   40.1815   14.7141 H   0  0  0  0  0  0  0  0  0  0  0  0
   11.2886   39.9656   14.9733 H   0  0  0  0  0  0  0  0  0  0  0  0
   14.3105   38.8555   16.2296 H   0  0  0  0  0  0  0  0  0  0  0  0
   14.6946   36.6978   17.4271 H   0  0  0  0  0  0  0  0  0  0  0  0
   13.0659   34.8131   17.1750 H   0  0  0  0  0  0  0  0  0  0  0  0
   11.0359   33.9026   16.2369 H   0  0  0  0  0  0  0  0  0  0  0  0
    9.0015   34.1399   14.7949 H   0  0  0  0  0  0  0  0  0  0  0  0
    8.5756   36.2890   13.5789 H   0  0  0  0  0  0  0  0  0  0  0  0
   10.1761   38.1971   13.7984 H   0  0  0  0  0  0  0  0  0  0  0  0
   14.7019   38.4878   13.5014 H   0  0  0  0  0  0  0  0  0  0  0  0
   16.0893   37.6506   11.5868 H   0  0  0  0  0  0  0  0  0  0  0  0
   12.7942   38.4069    8.8729 H   0  0  0  0  0  0  0  0  0  0  0  0
  1  2  1  0
  2  3  1  0
  3  4  1  0
  4  5  2  0
  4  6  1  0
  6  7  1  0
  6  8  1  0
  8  9  1  0
  9 10  2  0
 10 11  1  0
 11 12  2  0
 11 13  1  0
 10 14  1  0
 14 15  1  0
 15 16  1  0
 16 17  2  0
 17 18  1  0
 18 19  2  0
 19 20  1  0
 20 21  2  0
 21 22  1  0
 22 23  2  0
 23 24  1  0
 24 25  2  0
 14 26  1  0
 26 27  2  0
 27 28  1  0
 28 29  2  0
 29 30  1  0
 29 31  1  0
 31 32  2  0
 32  9  1  0
 25 16  1  0
 32 26  1  0
 25 20  1  0
  1 33  1  0
  1 34  1  0
  1 35  1  0
  2 36  1  0
  2 37  1  0
  7 38  1  0
  7 39  1  0
  7 40  1  0
  8 41  1  0
  8 42  1  0
 15 43  1  0
 15 44  1  0
 17 45  1  0
 18 46  1  0
 19 47  1  0
 21 48  1  0
 22 49  1  0
 23 50  1  0
 24 51  1  0
 27 52  1  0
 28 53  1  0
 31 54  1  0
M  CHG  1  13  -1
M  END
>  <meeko>  (411) 
{"free_energy": -5.72, "intermolecular_energy": -8.1, "internal_energy": -1.9, "cluster_size": 25, "cluster_id": 97, "rank_in_cluster": 1}

$$$$

     RDKit          3D

 54 57  0  0  0  0  0  0  0  0999 V2000
   13.4050   37.2890   16.7590 C   0  0  0  0  0  0  0  0  0  0  0  0
   12.7180   35.9500   17.0360 C   0  0  0  0  0  0  0  0  0  0  0  0
   11.8710   35.6240   15.9460 O   0  0  0  0  0  0  0  0  0  0  0  0
   10.5790   36.0150   15.9530 C   0  0  0  0  0  0  0  0  0  0  0  0
   10.1130   36.8000   16.7800 O   0  0  0  0  0  0  0  0  0  0  0  0
    9.8780   35.4130   14.9000 N   0  0  0  0  0  0  0  0  0  0  0  0
   10.2210   34.0780   14.3970 C   0  0  0  0  0  0  0  0  0  0  0  0
    8.7730   36.1070   14.2250 C   0  0  0  0  0  0  0  0  0  0  0  0
    9.2520   36.9610   13.0740 C   0  0  0  0  0  0  0  0  0  0  0  0
   10.0510   38.0900   13.1070 C   0  0  0  0  0  0  0  0  0  0  0  0
   10.6960   38.7690   14.2740 C   0  0  0  0  0  0  0  0  0  0  0  0
    9.9820   39.4470   15.0440 O   0  0  0  0  0  0  0  0  0  0  0  0
   11.9280   38.6740   14.4640 O   0  0  0  0  0  1  0  0  0  0  0  0
   10.1830   38.5910   11.7940 N   0  0  0  0  0  0  0  0  0  0  0  0
   10.9400   39.7600   11.3380 C   0  0  0  0  0  0  0  0  0  0  0  0
   12.2020   39.4340   10.5280 C   0  0  0  0  0  0  0  0  0  0  0  0
   12.9860   38.2930   10.8320 C   0  0  0  0  0  0  0  0  0  0  0  0
   14.1420   37.9910   10.0930 C   0  0  0  0  0  0  0  0  0  0  0  0
   14.5390   38.8270    9.0360 C   0  0  0  0  0  0  0  0  0  0  0  0
   13.7780   39.9670    8.7160 C   0  0  0  0  0  0  0  0  0  0  0  0
   14.1910   40.7950    7.6510 C   0  0  0  0  0  0  0  0  0  0  0  0
   13.4470   41.9400    7.3140 C   0  0  0  0  0  0  0  0  0  0  0  0
   12.2860   42.2580    8.0410 C   0  0  0  0  0  0  0  0  0  0  0  0
   11.8690   41.4360    9.1050 C   0  0  0  0  0  0  0  0  0  0  0  0
   12.6060   40.2790    9.4580 C   0  0  0  0  0  0  0  0  0  0  0  0
    9.4680   37.7820   10.9210 C   0  0  0  0  0  0  0  0  0  0  0  0
    9.2660   37.8510    9.5270 C   0  0  0  0  0  0  0  0  0  0  0  0
    8.4870   36.8750    8.8830 C   0  0  0  0  0  0  0  0  0  0  0  0
    7.9160   35.8330    9.6330 C   0  0  0  0  0  0  0  0  0  0  0  0
    7.1680   34.8870    9.0160 F   0  0  0  0  0  0  0  0  0  0  0  0
    8.1190   35.7720   11.0250 C   0  0  0  0  0  0  0  0  0  0  0  0
    8.8920   36.7450   11.7040 C   0  0  0  0  0  0  0  0  0  0  0  0
   13.6553   37.7769   17.7126 H   0  0  0  0  0  0  0  0  0  0  0  0
   14.3259   37.1163   16.1826 H   0  0  0  0  0  0  0  0  0  0  0  0
   12.7277   37.9363   16.1826 H   0  0  0  0  0  0  0  0  0  0  0  0
   13.4787   35.1649   17.1580 H   0  0  0  0  0  0  0  0  0  0  0  0
   12.1213   36.0253   17.9570 H   0  0  0  0  0  0  0  0  0  0  0  0
   10.3952   33.4000   15.2456 H   0  0  0  0  0  0  0  0  0  0  0  0
    9.3926   33.6931   13.7842 H   0  0  0  0  0  0  0  0  0  0  0  0
   11.1324   34.1401   13.7842 H   0  0  0  0  0  0  0  0  0  0  0  0
    8.0668   35.3569   13.8394 H   0  0  0  0  0  0  0  0  0  0  0  0
    8.2924   36.7699   14.9595 H   0  0  0  0  0  0  0  0  0  0  0  0
   10.2777   40.3720   10.7080 H   0  0  0  0  0  0  0  0  0  0  0  0
   11.2804   40.2813   12.2449 H   0  0  0  0  0  0  0  0  0  0  0  0
   12.6846   37.6337   11.6594 H   0  0  0  0  0  0  0  0  0  0  0  0
   14.7365   37.0996   10.3421 H   0  0  0  0  0  0  0  0  0  0  0  0
   15.4448   38.5906    8.4584 H   0  0  0  0  0  0  0  0  0  0  0  0
   15.0984   40.5441    7.0820 H   0  0  0  0  0  0  0  0  0  0  0  0
   13.7723   42.5848    6.4843 H   0  0  0  0  0  0  0  0  0  0  0  0
   11.7018   43.1520    7.7774 H   0  0  0  0  0  0  0  0  0  0  0  0
   10.9606   41.6951    9.6686 H   0  0  0  0  0  0  0  0  0  0  0  0
    9.7176   38.6677    8.9447 H   0  0  0  0  0  0  0  0  0  0  0  0
    8.3248   36.9264    7.7962 H   0  0  0  0  0  0  0  0  0  0  0  0
    7.6666   34.9494   11.5983 H   0  0  0  0  0  0  0  0  0  0  0  0
  1  2  1  0
  2  3  1  0
  3  4  1  0
  4  5  2  0
  4  6  1  0
  6  7  1  0
  6  8  1  0
  8  9  1  0
  9 10  2  0
 10 11  1  0
 11 12  2  0
 11 13  1  0
 10 14  1  0
 14 15  1  0
 15 16  1  0
 16 17  2  0
 17 18  1  0
 18 19  2  0
 19 20  1  0
 20 21  2  0
 21 22  1  0
 22 23  2  0
 23 24  1  0
 24 25  2  0
 14 26  1  0
 26 27  2  0
 27 28  1  0
 28 29  2  0
 29 30  1  0
 29 31  1  0
 31 32  2  0
 32  9  1  0
 25 16  1  0
 32 26  1  0
 25 20  1  0
  1 33  1  0
  1 34  1  0
  1 35  1  0
  2 36  1  0
  2 37  1  0
  7 38  1  0
  7 39  1  0
  7 40  1  0
  8 41  1  0
  8 42  1  0
 15 43  1  0
 15 44  1  0
 17 45  1  0
 18 46  1  0
 19 47  1  0
 21 48  1  0
 22 49  1  0
 23 50  1  0
 24 51  1  0
 27 52  1  0
 28 53  1  0
 31 54  1  0
M  CHG  1  13  -1
M  END
>  <meeko>  (412) 
{"free_energy": -5.98, "intermolecular_energy": -8.37, "internal_energy": -1.93, "cluster_size": 251, "cluster_id": 26, "rank_in_cluster": 74}

$$$$

     RDKit          3D

 54 57  0  0  0  0  0  0  0  0999 V2000
   18.2200   39.0600   16.1000 C   0  0  0  0  0  0  0  0  0  0  0  0
   17.6890   39.8380   14.8940 C   0  0  0  0  0  0  0  0  0  0  0  0
   16.2860   40.0010   15.0250 O   0  0  0  0  0  0  0  0  0  0  0  0
   15.4460   39.0960   14.4780 C   0  0  0  0  0  0  0  0  0  0  0  0
   15.0630   38.0840   15.0670 O   0  0  0  0  0  0  0  0  0  0  0  0
   15.0850   39.4820   13.1810 N   0  0  0  0  0  0  0  0  0  0  0  0
   15.1430   40.8800   12.7380 C   0  0  0  0  0  0  0  0  0  0  0  0
   14.5980   38.5010   12.2020 C   0  0  0  0  0  0  0  0  0  0  0  0
   13.1070   38.6010   11.9840 C   0  0  0  0  0  0  0  0  0  0  0  0
   12.4130   38.7720   10.7990 C   0  0  0  0  0  0  0  0  0  0  0  0
   12.9290   38.8730    9.3980 C   0  0  0  0  0  0  0  0  0  0  0  0
   12.1250   39.1440    8.4800 O   0  0  0  0  0  0  0  0  0  0  0  0
   14.1370   38.6690    9.1490 O   0  0  0  0  0  1  0  0  0  0  0  0
   11.0360   38.8750   11.0890 N   0  0  0  0  0  0  0  0  0  0  0  0
    9.9200   39.0520   10.1560 C   0  0  0  0  0  0  0  0  0  0  0  0
    9.3440   37.7500    9.5830 C   0  0  0  0  0  0  0  0  0  0  0  0
    9.7670   36.4910   10.0780 C   0  0  0  0  0  0  0  0  0  0  0  0
    9.2420   35.2950    9.5560 C   0  0  0  0  0  0  0  0  0  0  0  0
    8.2870   35.3370    8.5280 C   0  0  0  0  0  0  0  0  0  0  0  0
    7.8520   36.5760    8.0190 C   0  0  0  0  0  0  0  0  0  0  0  0
    6.8920   36.5990    6.9870 C   0  0  0  0  0  0  0  0  0  0  0  0
    6.4440   37.8240    6.4630 C   0  0  0  0  0  0  0  0  0  0  0  0
    6.9550   39.0310    6.9720 C   0  0  0  0  0  0  0  0  0  0  0  0
    7.9150   39.0150    8.0020 C   0  0  0  0  0  0  0  0  0  0  0  0
    8.3770   37.7890    8.5420 C   0  0  0  0  0  0  0  0  0  0  0  0
   10.8480   38.7690   12.4610 C   0  0  0  0  0  0  0  0  0  0  0  0
    9.6850   38.8200   13.2570 C   0  0  0  0  0  0  0  0  0  0  0  0
    9.7830   38.6730   14.6510 C   0  0  0  0  0  0  0  0  0  0  0  0
   11.0420   38.4740   15.2440 C   0  0  0  0  0  0  0  0  0  0  0  0
   11.1420   38.3270   16.5860 F   0  0  0  0  0  0  0  0  0  0  0  0
   12.1990   38.4280   14.4420 C   0  0  0  0  0  0  0  0  0  0  0  0
   12.1330   38.5790   13.0360 C   0  0  0  0  0  0  0  0  0  0  0  0
   17.8865   39.5487   17.0273 H   0  0  0  0  0  0  0  0  0  0  0  0
   17.8358   38.0297   16.0698 H   0  0  0  0  0  0  0  0  0  0  0  0
   19.3194   39.0424   16.0698 H   0  0  0  0  0  0  0  0  0  0  0  0
   18.1717   40.8255   14.8517 H   0  0  0  0  0  0  0  0  0  0  0  0
   17.9120   39.2846   13.9699 H   0  0  0  0  0  0  0  0  0  0  0  0
   15.1705   41.5420   13.6160 H   0  0  0  0  0  0  0  0  0  0  0  0
   16.0484   41.0357   12.1330 H   0  0  0  0  0  0  0  0  0  0  0  0
   14.2536   41.1101   12.1330 H   0  0  0  0  0  0  0  0  0  0  0  0
   15.1082   38.6748   11.2431 H   0  0  0  0  0  0  0  0  0  0  0  0
   14.8141   37.4968   12.5956 H   0  0  0  0  0  0  0  0  0  0  0  0
    9.1125   39.5791   10.6853 H   0  0  0  0  0  0  0  0  0  0  0  0
   10.3199   39.6154    9.3000 H   0  0  0  0  0  0  0  0  0  0  0  0
   10.5166   36.4486   10.8819 H   0  0  0  0  0  0  0  0  0  0  0  0
    9.5799   34.3265    9.9534 H   0  0  0  0  0  0  0  0  0  0  0  0
    7.8780   34.4011    8.1196 H   0  0  0  0  0  0  0  0  0  0  0  0
    6.4918   35.6544    6.5901 H   0  0  0  0  0  0  0  0  0  0  0  0
    5.6957   37.8383    5.6569 H   0  0  0  0  0  0  0  0  0  0  0  0
    6.6038   39.9905    6.5644 H   0  0  0  0  0  0  0  0  0  0  0  0
    8.3106   39.9645    8.3917 H   0  0  0  0  0  0  0  0  0  0  0  0
    8.7024   38.9746   12.7872 H   0  0  0  0  0  0  0  0  0  0  0  0
    8.8784   38.7135   15.2756 H   0  0  0  0  0  0  0  0  0  0  0  0
   13.1774   38.2710   14.9197 H   0  0  0  0  0  0  0  0  0  0  0  0
  1  2  1  0
  2  3  1  0
  3  4  1  0
  4  5  2  0
  4  6  1  0
  6  7  1  0
  6  8  1  0
  8  9  1  0
  9 10  2  0
 10 11  1  0
 11 12  2  0
 11 13  1  0
 10 14  1  0
 14 15  1  0
 15 16  1  0
 16 17  2  0
 17 18  1  0
 18 19  2  0
 19 20  1  0
 20 21  2  0
 21 22  1  0
 22 23  2  0
 23 24  1  0
 24 25  2  0
 14 26  1  0
 26 27  2  0
 27 28  1  0
 28 29  2  0
 29 30  1  0
 29 31  1  0
 31 32  2  0
 32  9  1  0
 25 16  1  0
 32 26  1  0
 25 20  1  0
  1 33  1  0
  1 34  1  0
  1 35  1  0
  2 36  1  0
  2 37  1  0
  7 38  1  0
  7 39  1  0
  7 40  1  0
  8 41  1  0
  8 42  1  0
 15 43  1  0
 15 44  1  0
 17 45  1  0
 18 46  1  0
 19 47  1  0
 21 48  1  0
 22 49  1  0
 23 50  1  0
 24 51  1  0
 27 52  1  0
 28 53  1  0
 31 54  1  0
M  CHG  1  13  -1
M  END
>  <meeko>  (413) 
{"free_energy": -6.53, "intermolecular_energy": -8.91, "internal_energy": -1.68, "cluster_size": 292, "cluster_id": 10, "rank_in_cluster": 66}

$$$$

     RDKit          3D

 54 57  0  0  0  0  0  0  0  0999 V2000
    6.7560   34.3270    5.9680 C   0  0  0  0  0  0  0  0  0  0  0  0
    7.6640   35.4990    6.3510 C   0  0  0  0  0  0  0  0  0  0  0  0
    7.5880   35.7090    7.7520 O   0  0  0  0  0  0  0  0  0  0  0  0
    8.5280   35.1850    8.5670 C   0  0  0  0  0  0  0  0  0  0  0  0
    9.0700   34.0970    8.3640 O   0  0  0  0  0  0  0  0  0  0  0  0
    8.7850   36.0480    9.6400 N   0  0  0  0  0  0  0  0  0  0  0  0
    7.7470   36.4220   10.6070 C   0  0  0  0  0  0  0  0  0  0  0  0
   10.1120   36.6480    9.8330 C   0  0  0  0  0  0  0  0  0  0  0  0
   10.1650   37.5380   11.0530 C   0  0  0  0  0  0  0  0  0  0  0  0
    9.9620   37.2010   12.3800 C   0  0  0  0  0  0  0  0  0  0  0  0
    9.6680   35.8680   12.9920 C   0  0  0  0  0  0  0  0  0  0  0  0
   10.6180   35.0870   13.2140 O   0  0  0  0  0  0  0  0  0  0  0  0
    8.4920   35.5350   13.2580 O   0  0  0  0  0  1  0  0  0  0  0  0
   10.0490   38.3720   13.1640 N   0  0  0  0  0  0  0  0  0  0  0  0
    9.9130   38.5070   14.6170 C   0  0  0  0  0  0  0  0  0  0  0  0
   10.3550   37.2780   15.4230 C   0  0  0  0  0  0  0  0  0  0  0  0
   11.7270   36.9440   15.5430 C   0  0  0  0  0  0  0  0  0  0  0  0
   12.1360   35.8200   16.2810 C   0  0  0  0  0  0  0  0  0  0  0  0
   11.1800   35.0070   16.9100 C   0  0  0  0  0  0  0  0  0  0  0  0
    9.8110   35.3170   16.8040 C   0  0  0  0  0  0  0  0  0  0  0  0
    8.8640   34.4890   17.4420 C   0  0  0  0  0  0  0  0  0  0  0  0
    7.4910   34.7790   17.3490 C   0  0  0  0  0  0  0  0  0  0  0  0
    7.0620   35.9000   16.6170 C   0  0  0  0  0  0  0  0  0  0  0  0
    8.0020   36.7300   15.9760 C   0  0  0  0  0  0  0  0  0  0  0  0
    9.3890   36.4530   16.0600 C   0  0  0  0  0  0  0  0  0  0  0  0
   10.3080   39.4580   12.3370 C   0  0  0  0  0  0  0  0  0  0  0  0
   10.4690   40.8310   12.6130 C   0  0  0  0  0  0  0  0  0  0  0  0
   10.7380   41.7290   11.5670 C   0  0  0  0  0  0  0  0  0  0  0  0
   10.8460   41.2520   10.2490 C   0  0  0  0  0  0  0  0  0  0  0  0
   11.1090   42.1120    9.2370 F   0  0  0  0  0  0  0  0  0  0  0  0
   10.6800   39.8790    9.9810 C   0  0  0  0  0  0  0  0  0  0  0  0
   10.4010   38.9510   11.0140 C   0  0  0  0  0  0  0  0  0  0  0  0
    6.3797   33.8413    6.8804 H   0  0  0  0  0  0  0  0  0  0  0  0
    5.9080   34.6990    5.3742 H   0  0  0  0  0  0  0  0  0  0  0  0
    7.3280   33.5988    5.3742 H   0  0  0  0  0  0  0  0  0  0  0  0
    8.7019   35.2677    6.0693 H   0  0  0  0  0  0  0  0  0  0  0  0
    7.3381   36.4072    5.8228 H   0  0  0  0  0  0  0  0  0  0  0  0
    8.1307   36.2838   11.6286 H   0  0  0  0  0  0  0  0  0  0  0  0
    7.4705   37.4763   10.4587 H   0  0  0  0  0  0  0  0  0  0  0  0
    6.8616   35.7864   10.4587 H   0  0  0  0  0  0  0  0  0  0  0  0
   10.8514   35.8420    9.9503 H   0  0  0  0  0  0  0  0  0  0  0  0
   10.3326   37.2692    8.9524 H   0  0  0  0  0  0  0  0  0  0  0  0
   10.5221   39.3644   14.9393 H   0  0  0  0  0  0  0  0  0  0  0  0
    8.8391   38.6373   14.8161 H   0  0  0  0  0  0  0  0  0  0  0  0
   12.4830   37.5738   15.0513 H   0  0  0  0  0  0  0  0  0  0  0  0
   13.2055   35.5773   16.3657 H   0  0  0  0  0  0  0  0  0  0  0  0
   11.5010   34.1268   17.4863 H   0  0  0  0  0  0  0  0  0  0  0  0
    9.2009   33.6125   18.0149 H   0  0  0  0  0  0  0  0  0  0  0  0
    6.7551   34.1308   17.8474 H   0  0  0  0  0  0  0  0  0  0  0  0
    5.9887   36.1296   16.5447 H   0  0  0  0  0  0  0  0  0  0  0  0
    7.6555   37.6032   15.4037 H   0  0  0  0  0  0  0  0  0  0  0  0
   10.3841   41.1987   13.6463 H   0  0  0  0  0  0  0  0  0  0  0  0
   10.8637   42.8012   11.7783 H   0  0  0  0  0  0  0  0  0  0  0  0
   10.7691   39.5192    8.9453 H   0  0  0  0  0  0  0  0  0  0  0  0
  1  2  1  0
  2  3  1  0
  3  4  1  0
  4  5  2  0
  4  6  1  0
  6  7  1  0
  6  8  1  0
  8  9  1  0
  9 10  2  0
 10 11  1  0
 11 12  2  0
 11 13  1  0
 10 14  1  0
 14 15  1  0
 15 16  1  0
 16 17  2  0
 17 18  1  0
 18 19  2  0
 19 20  1  0
 20 21  2  0
 21 22  1  0
 22 23  2  0
 23 24  1  0
 24 25  2  0
 14 26  1  0
 26 27  2  0
 27 28  1  0
 28 29  2  0
 29 30  1  0
 29 31  1  0
 31 32  2  0
 32  9  1  0
 25 16  1  0
 32 26  1  0
 25 20  1  0
  1 33  1  0
  1 34  1  0
  1 35  1  0
  2 36  1  0
  2 37  1  0
  7 38  1  0
  7 39  1  0
  7 40  1  0
  8 41  1  0
  8 42  1  0
 15 43  1  0
 15 44  1  0
 17 45  1  0
 18 46  1  0
 19 47  1  0
 21 48  1  0
 22 49  1  0
 23 50  1  0
 24 51  1  0
 27 52  1  0
 28 53  1  0
 31 54  1  0
M  CHG  1  13  -1
M  END
>  <meeko>  (414) 
{"free_energy": -6.19, "intermolecular_energy": -8.57, "internal_energy": -1.34, "cluster_size": 109, "cluster_id": 6, "rank_in_cluster": 59}

$$$$

     RDKit          3D

 54 57  0  0  0  0  0  0  0  0999 V2000
    1.7950   38.3190   18.2040 C   0  0  0  0  0  0  0  0  0  0  0  0
    2.8200   37.3680   18.8260 C   0  0  0  0  0  0  0  0  0  0  0  0
    4.1260   37.8630   18.5780 O   0  0  0  0  0  0  0  0  0  0  0  0
    4.9560   37.1970   17.7470 C   0  0  0  0  0  0  0  0  0  0  0  0
    5.0260   37.4200   16.5370 O   0  0  0  0  0  0  0  0  0  0  0  0
    5.7040   36.2480   18.4560 N   0  0  0  0  0  0  0  0  0  0  0  0
    5.6700   36.1640   19.9200 C   0  0  0  0  0  0  0  0  0  0  0  0
    6.5890   35.3030   17.7620 C   0  0  0  0  0  0  0  0  0  0  0  0
    8.0020   35.8250   17.6430 C   0  0  0  0  0  0  0  0  0  0  0  0
    8.5440   36.9870   18.1630 C   0  0  0  0  0  0  0  0  0  0  0  0
    7.9060   38.0380   19.0170 C   0  0  0  0  0  0  0  0  0  0  0  0
    7.9010   37.8830   20.2570 O   0  0  0  0  0  0  0  0  0  0  0  0
    7.3730   39.0420   18.4970 O   0  0  0  0  0  1  0  0  0  0  0  0
    9.8860   37.0910   17.7410 N   0  0  0  0  0  0  0  0  0  0  0  0
   10.8590   38.1430   18.0500 C   0  0  0  0  0  0  0  0  0  0  0  0
   10.5280   39.5210   17.4610 C   0  0  0  0  0  0  0  0  0  0  0  0
   10.4070   40.6590   18.2980 C   0  0  0  0  0  0  0  0  0  0  0  0
   10.1040   41.9230   17.7630 C   0  0  0  0  0  0  0  0  0  0  0  0
    9.9130   42.0720   16.3800 C   0  0  0  0  0  0  0  0  0  0  0  0
   10.0250   40.9570   15.5280 C   0  0  0  0  0  0  0  0  0  0  0  0
    9.8300   41.1260   14.1410 C   0  0  0  0  0  0  0  0  0  0  0  0
    9.9370   40.0260   13.2710 C   0  0  0  0  0  0  0  0  0  0  0  0
   10.2400   38.7540   13.7870 C   0  0  0  0  0  0  0  0  0  0  0  0
   10.4360   38.5780   15.1700 C   0  0  0  0  0  0  0  0  0  0  0  0
   10.3330   39.6750   16.0610 C   0  0  0  0  0  0  0  0  0  0  0  0
   10.2040   35.9950   16.9490 C   0  0  0  0  0  0  0  0  0  0  0  0
   11.3890   35.6330   16.2780 C   0  0  0  0  0  0  0  0  0  0  0  0
   11.4390   34.4390   15.5380 C   0  0  0  0  0  0  0  0  0  0  0  0
   10.3050   33.6120   15.4740 C   0  0  0  0  0  0  0  0  0  0  0  0
   10.3480   32.4580   14.7660 F   0  0  0  0  0  0  0  0  0  0  0  0
    9.1230   33.9820   16.1440 C   0  0  0  0  0  0  0  0  0  0  0  0
    9.0400   35.1820   16.8910 C   0  0  0  0  0  0  0  0  0  0  0  0
    1.2404   38.8336   19.0025 H   0  0  0  0  0  0  0  0  0  0  0  0
    2.3148   39.0619   17.5812 H   0  0  0  0  0  0  0  0  0  0  0  0
    1.0930   37.7451   17.5812 H   0  0  0  0  0  0  0  0  0  0  0  0
    2.6509   37.3033   19.9110 H   0  0  0  0  0  0  0  0  0  0  0  0
    2.7133   36.3675   18.3814 H   0  0  0  0  0  0  0  0  0  0  0  0
    6.0499   37.1025   20.3500 H   0  0  0  0  0  0  0  0  0  0  0  0
    4.6348   36.0002   20.2539 H   0  0  0  0  0  0  0  0  0  0  0  0
    6.2998   35.3263   20.2539 H   0  0  0  0  0  0  0  0  0  0  0  0
    6.6070   34.3572   18.3234 H   0  0  0  0  0  0  0  0  0  0  0  0
    6.1962   35.1579   16.7448 H   0  0  0  0  0  0  0  0  0  0  0  0
   10.9177   38.2438   19.1438 H   0  0  0  0  0  0  0  0  0  0  0  0
   11.8083   37.8305   17.5905 H   0  0  0  0  0  0  0  0  0  0  0  0
   10.5525   40.5510   19.3830 H   0  0  0  0  0  0  0  0  0  0  0  0
   10.0165   42.7952   18.4276 H   0  0  0  0  0  0  0  0  0  0  0  0
    9.6755   43.0613   15.9617 H   0  0  0  0  0  0  0  0  0  0  0  0
    9.5934   42.1219   13.7384 H   0  0  0  0  0  0  0  0  0  0  0  0
    9.7840   40.1607   12.1900 H   0  0  0  0  0  0  0  0  0  0  0  0
   10.3243   37.8929   13.1077 H   0  0  0  0  0  0  0  0  0  0  0  0
   10.6717   37.5781   15.5632 H   0  0  0  0  0  0  0  0  0  0  0  0
   12.2739   36.2841   16.3332 H   0  0  0  0  0  0  0  0  0  0  0  0
   12.3616   34.1534   15.0115 H   0  0  0  0  0  0  0  0  0  0  0  0
    8.2438   33.3235   16.0857 H   0  0  0  0  0  0  0  0  0  0  0  0
  1  2  1  0
  2  3  1  0
  3  4  1  0
  4  5  2  0
  4  6  1  0
  6  7  1  0
  6  8  1  0
  8  9  1  0
  9 10  2  0
 10 11  1  0
 11 12  2  0
 11 13  1  0
 10 14  1  0
 14 15  1  0
 15 16  1  0
 16 17  2  0
 17 18  1  0
 18 19  2  0
 19 20  1  0
 20 21  2  0
 21 22  1  0
 22 23  2  0
 23 24  1  0
 24 25  2  0
 14 26  1  0
 26 27  2  0
 27 28  1  0
 28 29  2  0
 29 30  1  0
 29 31  1  0
 31 32  2  0
 32  9  1  0
 25 16  1  0
 32 26  1  0
 25 20  1  0
  1 33  1  0
  1 34  1  0
  1 35  1  0
  2 36  1  0
  2 37  1  0
  7 38  1  0
  7 39  1  0
  7 40  1  0
  8 41  1  0
  8 42  1  0
 15 43  1  0
 15 44  1  0
 17 45  1  0
 18 46  1  0
 19 47  1  0
 21 48  1  0
 22 49  1  0
 23 50  1  0
 24 51  1  0
 27 52  1  0
 28 53  1  0
 31 54  1  0
M  CHG  1  13  -1
M  END
>  <meeko>  (415) 
{"free_energy": -6.1, "intermolecular_energy": -8.48, "internal_energy": -1.75, "cluster_size": 48, "cluster_id": 30, "rank_in_cluster": 10}

$$$$

     RDKit          3D

 54 57  0  0  0  0  0  0  0  0999 V2000
   15.7530   40.1420   11.5770 C   0  0  0  0  0  0  0  0  0  0  0  0
   15.2270   40.7110   12.8970 C   0  0  0  0  0  0  0  0  0  0  0  0
   13.9710   40.1230   13.1920 O   0  0  0  0  0  0  0  0  0  0  0  0
   12.8310   40.7250   12.7890 C   0  0  0  0  0  0  0  0  0  0  0  0
   12.4580   40.7530   11.6150 O   0  0  0  0  0  0  0  0  0  0  0  0
   12.1590   41.2870   13.8820 N   0  0  0  0  0  0  0  0  0  0  0  0
   12.3250   42.6950   14.2600 C   0  0  0  0  0  0  0  0  0  0  0  0
   11.2710   40.4790   14.7280 C   0  0  0  0  0  0  0  0  0  0  0  0
   10.7770   39.2400   14.0200 C   0  0  0  0  0  0  0  0  0  0  0  0
   11.0100   37.9120   14.3330 C   0  0  0  0  0  0  0  0  0  0  0  0
   11.7800   37.3210   15.4720 C   0  0  0  0  0  0  0  0  0  0  0  0
   13.0290   37.3550   15.4340 O   0  0  0  0  0  0  0  0  0  0  0  0
   11.1850   36.7870   16.4330 O   0  0  0  0  0  1  0  0  0  0  0  0
   10.4010   37.1000   13.3520 N   0  0  0  0  0  0  0  0  0  0  0  0
   10.3720   35.6370   13.2710 C   0  0  0  0  0  0  0  0  0  0  0  0
   10.2040   34.9200   14.6170 C   0  0  0  0  0  0  0  0  0  0  0  0
   11.0940   33.8870   15.0050 C   0  0  0  0  0  0  0  0  0  0  0  0
   10.9450   33.2270   16.2370 C   0  0  0  0  0  0  0  0  0  0  0  0
    9.9000   33.5870   17.1040 C   0  0  0  0  0  0  0  0  0  0  0  0
    9.0020   34.6080   16.7410 C   0  0  0  0  0  0  0  0  0  0  0  0
    7.9580   34.9560   17.6230 C   0  0  0  0  0  0  0  0  0  0  0  0
    7.0490   35.9720   17.2810 C   0  0  0  0  0  0  0  0  0  0  0  0
    7.1830   36.6450   16.0530 C   0  0  0  0  0  0  0  0  0  0  0  0
    8.2220   36.3030   15.1670 C   0  0  0  0  0  0  0  0  0  0  0  0
    9.1470   35.2810   15.4960 C   0  0  0  0  0  0  0  0  0  0  0  0
    9.7780   37.9090   12.4110 C   0  0  0  0  0  0  0  0  0  0  0  0
    9.0530   37.6030   11.2410 C   0  0  0  0  0  0  0  0  0  0  0  0
    8.5120   38.6380   10.4600 C   0  0  0  0  0  0  0  0  0  0  0  0
    8.6980   39.9750   10.8520 C   0  0  0  0  0  0  0  0  0  0  0  0
    8.1760   40.9780   10.1050 F   0  0  0  0  0  0  0  0  0  0  0  0
    9.4270   40.2740   12.0190 C   0  0  0  0  0  0  0  0  0  0  0  0
    9.9890   39.2520   12.8230 C   0  0  0  0  0  0  0  0  0  0  0  0
   16.4861   39.3489   11.7858 H   0  0  0  0  0  0  0  0  0  0  0  0
   14.9159   39.7244   10.9983 H   0  0  0  0  0  0  0  0  0  0  0  0
   16.2350   40.9437   10.9983 H   0  0  0  0  0  0  0  0  0  0  0  0
   15.9382   40.4836   13.7048 H   0  0  0  0  0  0  0  0  0  0  0  0
   15.1124   41.8015   12.8092 H   0  0  0  0  0  0  0  0  0  0  0  0
   12.3352   42.7815   15.3565 H   0  0  0  0  0  0  0  0  0  0  0  0
   13.2741   43.0744   13.8534 H   0  0  0  0  0  0  0  0  0  0  0  0
   11.4902   43.2847   13.8534 H   0  0  0  0  0  0  0  0  0  0  0  0
   11.8219   40.1750   15.6303 H   0  0  0  0  0  0  0  0  0  0  0  0
   10.3949   41.0943   14.9808 H   0  0  0  0  0  0  0  0  0  0  0  0
    9.5325   35.3470   12.6220 H   0  0  0  0  0  0  0  0  0  0  0  0
   11.3521   35.3298   12.8774 H   0  0  0  0  0  0  0  0  0  0  0  0
   11.9140   33.5975   14.3314 H   0  0  0  0  0  0  0  0  0  0  0  0
   11.6463   32.4290   16.5221 H   0  0  0  0  0  0  0  0  0  0  0  0
    9.7834   33.0702   18.0680 H   0  0  0  0  0  0  0  0  0  0  0  0
    7.8546   34.4297   18.5834 H   0  0  0  0  0  0  0  0  0  0  0  0
    6.2355   36.2400   17.9713 H   0  0  0  0  0  0  0  0  0  0  0  0
    6.4734   37.4413   15.7842 H   0  0  0  0  0  0  0  0  0  0  0  0
    8.3170   36.8348   14.2088 H   0  0  0  0  0  0  0  0  0  0  0  0
    8.9111   36.5546   10.9399 H   0  0  0  0  0  0  0  0  0  0  0  0
    7.9458   38.4033    9.5466 H   0  0  0  0  0  0  0  0  0  0  0  0
    9.5632   41.3252   12.3131 H   0  0  0  0  0  0  0  0  0  0  0  0
  1  2  1  0
  2  3  1  0
  3  4  1  0
  4  5  2  0
  4  6  1  0
  6  7  1  0
  6  8  1  0
  8  9  1  0
  9 10  2  0
 10 11  1  0
 11 12  2  0
 11 13  1  0
 10 14  1  0
 14 15  1  0
 15 16  1  0
 16 17  2  0
 17 18  1  0
 18 19  2  0
 19 20  1  0
 20 21  2  0
 21 22  1  0
 22 23  2  0
 23 24  1  0
 24 25  2  0
 14 26  1  0
 26 27  2  0
 27 28  1  0
 28 29  2  0
 29 30  1  0
 29 31  1  0
 31 32  2  0
 32  9  1  0
 25 16  1  0
 32 26  1  0
 25 20  1  0
  1 33  1  0
  1 34  1  0
  1 35  1  0
  2 36  1  0
  2 37  1  0
  7 38  1  0
  7 39  1  0
  7 40  1  0
  8 41  1  0
  8 42  1  0
 15 43  1  0
 15 44  1  0
 17 45  1  0
 18 46  1  0
 19 47  1  0
 21 48  1  0
 22 49  1  0
 23 50  1  0
 24 51  1  0
 27 52  1  0
 28 53  1  0
 31 54  1  0
M  CHG  1  13  -1
M  END
>  <meeko>  (416) 
{"free_energy": -4.64, "intermolecular_energy": -7.03, "internal_energy": -1.87, "cluster_size": 3, "cluster_id": 90, "rank_in_cluster": 3}

$$$$

     RDKit          3D

 54 57  0  0  0  0  0  0  0  0999 V2000
    6.9880   34.6860   17.0140 C   0  0  0  0  0  0  0  0  0  0  0  0
    7.0110   36.2070   17.1880 C   0  0  0  0  0  0  0  0  0  0  0  0
    7.6330   36.7970   16.0580 O   0  0  0  0  0  0  0  0  0  0  0  0
    8.9310   37.1640   16.1150 C   0  0  0  0  0  0  0  0  0  0  0  0
    9.4120   37.8140   17.0450 O   0  0  0  0  0  0  0  0  0  0  0  0
    9.6240   36.6980   14.9900 N   0  0  0  0  0  0  0  0  0  0  0  0
   11.0890   36.6770   14.9290 C   0  0  0  0  0  0  0  0  0  0  0  0
    8.9080   36.2300   13.7950 C   0  0  0  0  0  0  0  0  0  0  0  0
    9.0830   37.1650   12.6210 C   0  0  0  0  0  0  0  0  0  0  0  0
    9.6010   38.4480   12.6050 C   0  0  0  0  0  0  0  0  0  0  0  0
   10.1660   39.2630   13.7250 C   0  0  0  0  0  0  0  0  0  0  0  0
   11.4000   39.4560   13.7650 O   0  0  0  0  0  0  0  0  0  0  0  0
    9.4180   39.7260   14.6150 O   0  0  0  0  0  1  0  0  0  0  0  0
    9.5080   38.9590   11.2920 N   0  0  0  0  0  0  0  0  0  0  0  0
    9.9370   40.2680   10.7920 C   0  0  0  0  0  0  0  0  0  0  0  0
   11.3230   40.2840   10.1330 C   0  0  0  0  0  0  0  0  0  0  0  0
   11.7470   39.2120    9.3080 C   0  0  0  0  0  0  0  0  0  0  0  0
   13.0150   39.2220    8.7020 C   0  0  0  0  0  0  0  0  0  0  0  0
   13.8840   40.3050    8.9110 C   0  0  0  0  0  0  0  0  0  0  0  0
   13.4870   41.3800    9.7270 C   0  0  0  0  0  0  0  0  0  0  0  0
   14.3730   42.4590    9.9270 C   0  0  0  0  0  0  0  0  0  0  0  0
   13.9980   43.5440   10.7390 C   0  0  0  0  0  0  0  0  0  0  0  0
   12.7330   43.5530   11.3530 C   0  0  0  0  0  0  0  0  0  0  0  0
   11.8440   42.4790   11.1580 C   0  0  0  0  0  0  0  0  0  0  0  0
   12.2060   41.3780   10.3440 C   0  0  0  0  0  0  0  0  0  0  0  0
    8.9300   38.0010   10.4690 C   0  0  0  0  0  0  0  0  0  0  0  0
    8.6060   38.0150    9.0960 C   0  0  0  0  0  0  0  0  0  0  0  0
    8.0230   36.8820    8.5030 C   0  0  0  0  0  0  0  0  0  0  0  0
    7.7680   35.7410    9.2830 C   0  0  0  0  0  0  0  0  0  0  0  0
    7.2110   34.6440    8.7160 F   0  0  0  0  0  0  0  0  0  0  0  0
    8.0920   35.7360   10.6530 C   0  0  0  0  0  0  0  0  0  0  0  0
    8.6740   36.8640   11.2810 C   0  0  0  0  0  0  0  0  0  0  0  0
    6.9807   34.2039   18.0027 H   0  0  0  0  0  0  0  0  0  0  0  0
    6.0853   34.3943   16.4571 H   0  0  0  0  0  0  0  0  0  0  0  0
    7.8814   34.3671   16.4571 H   0  0  0  0  0  0  0  0  0  0  0  0
    5.9810   36.5824   17.2787 H   0  0  0  0  0  0  0  0  0  0  0  0
    7.5740   36.4662   18.0968 H   0  0  0  0  0  0  0  0  0  0  0  0
   11.4984   36.6711   15.9499 H   0  0  0  0  0  0  0  0  0  0  0  0
   11.4209   35.7740   14.3957 H   0  0  0  0  0  0  0  0  0  0  0  0
   11.4466   37.5701   14.3957 H   0  0  0  0  0  0  0  0  0  0  0  0
    9.2928   35.2375   13.5177 H   0  0  0  0  0  0  0  0  0  0  0  0
    7.8359   36.1906   14.0380 H   0  0  0  0  0  0  0  0  0  0  0  0
    9.2010   40.6081   10.0486 H   0  0  0  0  0  0  0  0  0  0  0  0
   10.0046   40.9272   11.6700 H   0  0  0  0  0  0  0  0  0  0  0  0
   11.0731   38.3591    9.1395 H   0  0  0  0  0  0  0  0  0  0  0  0
   13.3266   38.3817    8.0642 H   0  0  0  0  0  0  0  0  0  0  0  0
   14.8762   40.3128    8.4362 H   0  0  0  0  0  0  0  0  0  0  0  0
   15.3620   42.4517    9.4455 H   0  0  0  0  0  0  0  0  0  0  0  0
   14.6921   44.3832   10.8934 H   0  0  0  0  0  0  0  0  0  0  0  0
   12.4373   44.4016   11.9874 H   0  0  0  0  0  0  0  0  0  0  0  0
   10.8570   42.4951   11.6434 H   0  0  0  0  0  0  0  0  0  0  0  0
    8.8093   38.9108    8.4909 H   0  0  0  0  0  0  0  0  0  0  0  0
    7.7674   36.8882    7.4331 H   0  0  0  0  0  0  0  0  0  0  0  0
    7.8883   34.8347   11.2497 H   0  0  0  0  0  0  0  0  0  0  0  0
  1  2  1  0
  2  3  1  0
  3  4  1  0
  4  5  2  0
  4  6  1  0
  6  7  1  0
  6  8  1  0
  8  9  1  0
  9 10  2  0
 10 11  1  0
 11 12  2  0
 11 13  1  0
 10 14  1  0
 14 15  1  0
 15 16  1  0
 16 17  2  0
 17 18  1  0
 18 19  2  0
 19 20  1  0
 20 21  2  0
 21 22  1  0
 22 23  2  0
 23 24  1  0
 24 25  2  0
 14 26  1  0
 26 27  2  0
 27 28  1  0
 28 29  2  0
 29 30  1  0
 29 31  1  0
 31 32  2  0
 32  9  1  0
 25 16  1  0
 32 26  1  0
 25 20  1  0
  1 33  1  0
  1 34  1  0
  1 35  1  0
  2 36  1  0
  2 37  1  0
  7 38  1  0
  7 39  1  0
  7 40  1  0
  8 41  1  0
  8 42  1  0
 15 43  1  0
 15 44  1  0
 17 45  1  0
 18 46  1  0
 19 47  1  0
 21 48  1  0
 22 49  1  0
 23 50  1  0
 24 51  1  0
 27 52  1  0
 28 53  1  0
 31 54  1  0
M  CHG  1  13  -1
M  END
>  <meeko>  (417) 
{"free_energy": -5.83, "intermolecular_energy": -8.22, "internal_energy": -1.51, "cluster_size": 318, "cluster_id": 5, "rank_in_cluster": 179}

$$$$

     RDKit          3D

 54 57  0  0  0  0  0  0  0  0999 V2000
    8.5110   43.8010   18.0400 C   0  0  0  0  0  0  0  0  0  0  0  0
    9.9880   44.1000   17.7710 C   0  0  0  0  0  0  0  0  0  0  0  0
   10.3440   43.5860   16.4970 O   0  0  0  0  0  0  0  0  0  0  0  0
   11.6440   43.4920   16.1450 C   0  0  0  0  0  0  0  0  0  0  0  0
   12.5720   43.8250   16.8840 O   0  0  0  0  0  0  0  0  0  0  0  0
   11.7660   42.9670   14.8530 N   0  0  0  0  0  0  0  0  0  0  0  0
   11.8370   43.8260   13.6650 C   0  0  0  0  0  0  0  0  0  0  0  0
   11.8000   41.5170   14.6190 C   0  0  0  0  0  0  0  0  0  0  0  0
   11.1920   41.1370   13.2900 C   0  0  0  0  0  0  0  0  0  0  0  0
   11.7230   40.3430   12.2890 C   0  0  0  0  0  0  0  0  0  0  0  0
   13.0260   39.6090   12.2440 C   0  0  0  0  0  0  0  0  0  0  0  0
   13.0950   38.4760   12.7690 O   0  0  0  0  0  0  0  0  0  0  0  0
   14.0300   40.1260   11.7090 O   0  0  0  0  0  1  0  0  0  0  0  0
   10.8230   40.3200   11.2020 N   0  0  0  0  0  0  0  0  0  0  0  0
   10.9530   39.6070    9.9280 C   0  0  0  0  0  0  0  0  0  0  0  0
   10.2920   38.2220    9.8940 C   0  0  0  0  0  0  0  0  0  0  0  0
   10.8500   37.1340   10.6100 C   0  0  0  0  0  0  0  0  0  0  0  0
   10.2480   35.8640   10.5820 C   0  0  0  0  0  0  0  0  0  0  0  0
    9.0780   35.6580    9.8340 C   0  0  0  0  0  0  0  0  0  0  0  0
    8.5060   36.7220    9.1120 C   0  0  0  0  0  0  0  0  0  0  0  0
    7.3310   36.4970    8.3650 C   0  0  0  0  0  0  0  0  0  0  0  0
    6.7420   37.5450    7.6360 C   0  0  0  0  0  0  0  0  0  0  0  0
    7.3280   38.8240    7.6530 C   0  0  0  0  0  0  0  0  0  0  0  0
    8.5020   39.0550    8.3960 C   0  0  0  0  0  0  0  0  0  0  0  0
    9.1080   38.0100    9.1360 C   0  0  0  0  0  0  0  0  0  0  0  0
    9.7150   41.0990   11.5080 C   0  0  0  0  0  0  0  0  0  0  0  0
    8.5550   41.4140   10.7710 C   0  0  0  0  0  0  0  0  0  0  0  0
    7.5670   42.2370   11.3370 C   0  0  0  0  0  0  0  0  0  0  0  0
    7.7420   42.7420   12.6370 C   0  0  0  0  0  0  0  0  0  0  0  0
    6.7920   43.5330   13.1900 F   0  0  0  0  0  0  0  0  0  0  0  0
    8.9050   42.4270   13.3660 C   0  0  0  0  0  0  0  0  0  0  0  0
    9.9210   41.6050   12.8200 C   0  0  0  0  0  0  0  0  0  0  0  0
    8.3358   43.7655   19.1254 H   0  0  0  0  0  0  0  0  0  0  0  0
    7.8897   44.5916   17.5940 H   0  0  0  0  0  0  0  0  0  0  0  0
    8.2461   42.8310   17.5940 H   0  0  0  0  0  0  0  0  0  0  0  0
   10.1521   45.1876   17.7878 H   0  0  0  0  0  0  0  0  0  0  0  0
   10.6079   43.6267   18.5467 H   0  0  0  0  0  0  0  0  0  0  0  0
   11.9239   44.8772   13.9773 H   0  0  0  0  0  0  0  0  0  0  0  0
   12.7153   43.5483   13.0637 H   0  0  0  0  0  0  0  0  0  0  0  0
   10.9251   43.6963   13.0637 H   0  0  0  0  0  0  0  0  0  0  0  0
   12.8469   41.1799   14.6385 H   0  0  0  0  0  0  0  0  0  0  0  0
   11.2080   41.0342   15.4105 H   0  0  0  0  0  0  0  0  0  0  0  0
   10.4937   40.2245    9.1420 H   0  0  0  0  0  0  0  0  0  0  0  0
   12.0295   39.4397    9.7757 H   0  0  0  0  0  0  0  0  0  0  0  0
   11.7681   37.2854   11.1966 H   0  0  0  0  0  0  0  0  0  0  0  0
   10.6937   35.0315   11.1462 H   0  0  0  0  0  0  0  0  0  0  0  0
    8.6078   34.6638    9.8122 H   0  0  0  0  0  0  0  0  0  0  0  0
    6.8733   35.4968    8.3527 H   0  0  0  0  0  0  0  0  0  0  0  0
    5.8259   37.3655    7.0542 H   0  0  0  0  0  0  0  0  0  0  0  0
    6.8680   39.6457    7.0845 H   0  0  0  0  0  0  0  0  0  0  0  0
    8.9534   40.0581    8.4018 H   0  0  0  0  0  0  0  0  0  0  0  0
    8.4237   41.0158    9.7540 H   0  0  0  0  0  0  0  0  0  0  0  0
    6.6605   42.4851   10.7653 H   0  0  0  0  0  0  0  0  0  0  0  0
    9.0271   42.8286   14.3828 H   0  0  0  0  0  0  0  0  0  0  0  0
  1  2  1  0
  2  3  1  0
  3  4  1  0
  4  5  2  0
  4  6  1  0
  6  7  1  0
  6  8  1  0
  8  9  1  0
  9 10  2  0
 10 11  1  0
 11 12  2  0
 11 13  1  0
 10 14  1  0
 14 15  1  0
 15 16  1  0
 16 17  2  0
 17 18  1  0
 18 19  2  0
 19 20  1  0
 20 21  2  0
 21 22  1  0
 22 23  2  0
 23 24  1  0
 24 25  2  0
 14 26  1  0
 26 27  2  0
 27 28  1  0
 28 29  2  0
 29 30  1  0
 29 31  1  0
 31 32  2  0
 32  9  1  0
 25 16  1  0
 32 26  1  0
 25 20  1  0
  1 33  1  0
  1 34  1  0
  1 35  1  0
  2 36  1  0
  2 37  1  0
  7 38  1  0
  7 39  1  0
  7 40  1  0
  8 41  1  0
  8 42  1  0
 15 43  1  0
 15 44  1  0
 17 45  1  0
 18 46  1  0
 19 47  1  0
 21 48  1  0
 22 49  1  0
 23 50  1  0
 24 51  1  0
 27 52  1  0
 28 53  1  0
 31 54  1  0
M  CHG  1  13  -1
M  END
>  <meeko>  (418) 
{"free_energy": -4.89, "intermolecular_energy": -7.27, "internal_energy": -1.76, "cluster_size": 47, "cluster_id": 29, "rank_in_cluster": 32}

$$$$

     RDKit          3D

 54 57  0  0  0  0  0  0  0  0999 V2000
   10.0640   39.0840   15.8240 C   0  0  0  0  0  0  0  0  0  0  0  0
   11.4110   38.3680   15.6900 C   0  0  0  0  0  0  0  0  0  0  0  0
   12.2060   39.0440   14.7290 O   0  0  0  0  0  0  0  0  0  0  0  0
   13.5520   38.9880   14.8050 C   0  0  0  0  0  0  0  0  0  0  0  0
   14.1610   38.0900   15.3890 O   0  0  0  0  0  0  0  0  0  0  0  0
   14.1290   40.0710   14.1290 N   0  0  0  0  0  0  0  0  0  0  0  0
   15.5500   40.0990   13.7680 C   0  0  0  0  0  0  0  0  0  0  0  0
   13.3360   41.2560   13.7730 C   0  0  0  0  0  0  0  0  0  0  0  0
   12.4980   41.0320   12.5360 C   0  0  0  0  0  0  0  0  0  0  0  0
   11.1510   41.2830   12.3440 C   0  0  0  0  0  0  0  0  0  0  0  0
   10.1480   41.8740   13.2840 C   0  0  0  0  0  0  0  0  0  0  0  0
   10.2460   43.0840   13.5830 O   0  0  0  0  0  0  0  0  0  0  0  0
    9.2410   41.1670   13.7740 O   0  0  0  0  0  1  0  0  0  0  0  0
   10.7890   40.8570   11.0480 N   0  0  0  0  0  0  0  0  0  0  0  0
    9.4770   40.9290   10.3990 C   0  0  0  0  0  0  0  0  0  0  0  0
    8.9070   39.5790    9.9440 C   0  0  0  0  0  0  0  0  0  0  0  0
    8.2840   39.4430    8.6780 C   0  0  0  0  0  0  0  0  0  0  0  0
    7.7610   38.2090    8.2580 C   0  0  0  0  0  0  0  0  0  0  0  0
    7.8490   37.0860    9.0970 C   0  0  0  0  0  0  0  0  0  0  0  0
    8.4620   37.1960   10.3590 C   0  0  0  0  0  0  0  0  0  0  0  0
    8.5410   36.0580   11.1890 C   0  0  0  0  0  0  0  0  0  0  0  0
    9.1480   36.1440   12.4540 C   0  0  0  0  0  0  0  0  0  0  0  0
    9.6790   37.3700   12.8930 C   0  0  0  0  0  0  0  0  0  0  0  0
    9.6020   38.5100   12.0700 C   0  0  0  0  0  0  0  0  0  0  0  0
    8.9940   38.4410   10.7920 C   0  0  0  0  0  0  0  0  0  0  0  0
   11.9060   40.3330   10.4100 C   0  0  0  0  0  0  0  0  0  0  0  0
   12.0780   39.7680    9.1300 C   0  0  0  0  0  0  0  0  0  0  0  0
   13.3460   39.3150    8.7280 C   0  0  0  0  0  0  0  0  0  0  0  0
   14.4370   39.4300    9.6070 C   0  0  0  0  0  0  0  0  0  0  0  0
   15.6630   38.9990    9.2240 F   0  0  0  0  0  0  0  0  0  0  0  0
   14.2570   39.9920   10.8860 C   0  0  0  0  0  0  0  0  0  0  0  0
   12.9900   40.4510   11.3210 C   0  0  0  0  0  0  0  0  0  0  0  0
    9.8216   39.2128   16.8892 H   0  0  0  0  0  0  0  0  0  0  0  0
   10.1230   40.0698   15.3395 H   0  0  0  0  0  0  0  0  0  0  0  0
    9.2798   38.4837   15.3395 H   0  0  0  0  0  0  0  0  0  0  0  0
   11.9270   38.3704   16.6615 H   0  0  0  0  0  0  0  0  0  0  0  0
   11.2465   37.3291   15.3681 H   0  0  0  0  0  0  0  0  0  0  0  0
   16.1606   40.1110   14.6829 H   0  0  0  0  0  0  0  0  0  0  0  0
   15.7954   39.2055   13.1751 H   0  0  0  0  0  0  0  0  0  0  0  0
   15.7600   41.0015   13.1751 H   0  0  0  0  0  0  0  0  0  0  0  0
   12.6693   41.5013   14.6128 H   0  0  0  0  0  0  0  0  0  0  0  0
   14.0349   42.0790   13.5627 H   0  0  0  0  0  0  0  0  0  0  0  0
    8.7678   41.3771   11.1105 H   0  0  0  0  0  0  0  0  0  0  0  0
    9.6160   41.5285    9.4873 H   0  0  0  0  0  0  0  0  0  0  0  0
    8.2090   40.3171    8.0145 H   0  0  0  0  0  0  0  0  0  0  0  0
    7.2822   38.1220    7.2715 H   0  0  0  0  0  0  0  0  0  0  0  0
    7.4386   36.1201    8.7675 H   0  0  0  0  0  0  0  0  0  0  0  0
    8.1258   35.0993   10.8448 H   0  0  0  0  0  0  0  0  0  0  0  0
    9.2075   35.2548   13.0988 H   0  0  0  0  0  0  0  0  0  0  0  0
   10.1558   37.4386   13.8819 H   0  0  0  0  0  0  0  0  0  0  0  0
   10.0185   39.4648   12.4232 H   0  0  0  0  0  0  0  0  0  0  0  0
   11.2204   39.6818    8.4465 H   0  0  0  0  0  0  0  0  0  0  0  0
   13.4842   38.8726    7.7304 H   0  0  0  0  0  0  0  0  0  0  0  0
   15.1204   40.0763   11.5624 H   0  0  0  0  0  0  0  0  0  0  0  0
  1  2  1  0
  2  3  1  0
  3  4  1  0
  4  5  2  0
  4  6  1  0
  6  7  1  0
  6  8  1  0
  8  9  1  0
  9 10  2  0
 10 11  1  0
 11 12  2  0
 11 13  1  0
 10 14  1  0
 14 15  1  0
 15 16  1  0
 16 17  2  0
 17 18  1  0
 18 19  2  0
 19 20  1  0
 20 21  2  0
 21 22  1  0
 22 23  2  0
 23 24  1  0
 24 25  2  0
 14 26  1  0
 26 27  2  0
 27 28  1  0
 28 29  2  0
 29 30  1  0
 29 31  1  0
 31 32  2  0
 32  9  1  0
 25 16  1  0
 32 26  1  0
 25 20  1  0
  1 33  1  0
  1 34  1  0
  1 35  1  0
  2 36  1  0
  2 37  1  0
  7 38  1  0
  7 39  1  0
  7 40  1  0
  8 41  1  0
  8 42  1  0
 15 43  1  0
 15 44  1  0
 17 45  1  0
 18 46  1  0
 19 47  1  0
 21 48  1  0
 22 49  1  0
 23 50  1  0
 24 51  1  0
 27 52  1  0
 28 53  1  0
 31 54  1  0
M  CHG  1  13  -1
M  END
>  <meeko>  (419) 
{"free_energy": -5.45, "intermolecular_energy": -7.84, "internal_energy": -2.47, "cluster_size": 167, "cluster_id": 22, "rank_in_cluster": 96}

$$$$

     RDKit          3D

 54 57  0  0  0  0  0  0  0  0999 V2000
    8.9940   38.0440   21.0770 C   0  0  0  0  0  0  0  0  0  0  0  0
    9.9550   37.5330   20.0010 C   0  0  0  0  0  0  0  0  0  0  0  0
    9.3180   37.6000   18.7350 O   0  0  0  0  0  0  0  0  0  0  0  0
    8.8430   38.7790   18.2790 C   0  0  0  0  0  0  0  0  0  0  0  0
    7.7120   39.1970   18.5300 O   0  0  0  0  0  0  0  0  0  0  0  0
    9.8110   39.4320   17.5060 N   0  0  0  0  0  0  0  0  0  0  0  0
    9.6420   40.8160   17.0490 C   0  0  0  0  0  0  0  0  0  0  0  0
   11.0420   38.7470   17.0870 C   0  0  0  0  0  0  0  0  0  0  0  0
   10.8970   38.0860   15.7370 C   0  0  0  0  0  0  0  0  0  0  0  0
   11.3720   38.5110   14.5080 C   0  0  0  0  0  0  0  0  0  0  0  0
   12.1870   39.7180   14.1670 C   0  0  0  0  0  0  0  0  0  0  0  0
   13.2140   39.5710   13.4690 O   0  0  0  0  0  0  0  0  0  0  0  0
   11.8580   40.8490   14.5870 O   0  0  0  0  0  1  0  0  0  0  0  0
   10.9400   37.6050   13.5160 N   0  0  0  0  0  0  0  0  0  0  0  0
   11.2060   37.6380   12.0750 C   0  0  0  0  0  0  0  0  0  0  0  0
   10.1110   38.3060   11.2330 C   0  0  0  0  0  0  0  0  0  0  0  0
    9.9050   39.7070   11.2890 C   0  0  0  0  0  0  0  0  0  0  0  0
    8.9030   40.3230   10.5190 C   0  0  0  0  0  0  0  0  0  0  0  0
    8.0860   39.5480    9.6800 C   0  0  0  0  0  0  0  0  0  0  0  0
    8.2700   38.1550    9.6080 C   0  0  0  0  0  0  0  0  0  0  0  0
    7.4400   37.3920    8.7600 C   0  0  0  0  0  0  0  0  0  0  0  0
    7.6050   35.9980    8.6730 C   0  0  0  0  0  0  0  0  0  0  0  0
    8.6030   35.3630    9.4340 C   0  0  0  0  0  0  0  0  0  0  0  0
    9.4340   36.1190   10.2830 C   0  0  0  0  0  0  0  0  0  0  0  0
    9.2810   37.5240   10.3830 C   0  0  0  0  0  0  0  0  0  0  0  0
   10.1880   36.6000   14.1100 C   0  0  0  0  0  0  0  0  0  0  0  0
    9.5260   35.4780   13.5700 C   0  0  0  0  0  0  0  0  0  0  0  0
    8.8320   34.5990   14.4180 C   0  0  0  0  0  0  0  0  0  0  0  0
    8.8030   34.8430   15.8020 C   0  0  0  0  0  0  0  0  0  0  0  0
    8.1390   33.9980   16.6260 F   0  0  0  0  0  0  0  0  0  0  0  0
    9.4640   35.9680   16.3340 C   0  0  0  0  0  0  0  0  0  0  0  0
   10.1660   36.8750   15.5040 C   0  0  0  0  0  0  0  0  0  0  0  0
    9.4075   37.8241   22.0723 H   0  0  0  0  0  0  0  0  0  0  0  0
    8.8636   39.1306   20.9660 H   0  0  0  0  0  0  0  0  0  0  0  0
    8.0202   37.5446   20.9660 H   0  0  0  0  0  0  0  0  0  0  0  0
   10.8606   38.1573   19.9904 H   0  0  0  0  0  0  0  0  0  0  0  0
   10.2334   36.4915   20.2194 H   0  0  0  0  0  0  0  0  0  0  0  0
    9.5606   41.4825   17.9203 H   0  0  0  0  0  0  0  0  0  0  0  0
   10.5109   41.1104   16.4420 H   0  0  0  0  0  0  0  0  0  0  0  0
    8.7278   40.8927   16.4420 H   0  0  0  0  0  0  0  0  0  0  0  0
   11.8570   39.4839   17.0347 H   0  0  0  0  0  0  0  0  0  0  0  0
   11.2588   37.9613   17.8257 H   0  0  0  0  0  0  0  0  0  0  0  0
   12.1451   38.1875   11.9130 H   0  0  0  0  0  0  0  0  0  0  0  0
   11.2536   36.5897   11.7451 H   0  0  0  0  0  0  0  0  0  0  0  0
   10.5388   40.3218   11.9450 H   0  0  0  0  0  0  0  0  0  0  0  0
    8.7589   41.4122   10.5737 H   0  0  0  0  0  0  0  0  0  0  0  0
    7.3015   40.0305    9.0786 H   0  0  0  0  0  0  0  0  0  0  0  0
    6.6605   37.8895    8.1643 H   0  0  0  0  0  0  0  0  0  0  0  0
    6.9553   35.4060    8.0116 H   0  0  0  0  0  0  0  0  0  0  0  0
    8.7347   34.2730    9.3658 H   0  0  0  0  0  0  0  0  0  0  0  0
   10.2107   35.6130   10.8752 H   0  0  0  0  0  0  0  0  0  0  0  0
    9.5530   35.2914   12.4863 H   0  0  0  0  0  0  0  0  0  0  0  0
    8.3134   33.7233   14.0007 H   0  0  0  0  0  0  0  0  0  0  0  0
    9.4339   36.1456   17.4192 H   0  0  0  0  0  0  0  0  0  0  0  0
  1  2  1  0
  2  3  1  0
  3  4  1  0
  4  5  2  0
  4  6  1  0
  6  7  1  0
  6  8  1  0
  8  9  1  0
  9 10  2  0
 10 11  1  0
 11 12  2  0
 11 13  1  0
 10 14  1  0
 14 15  1  0
 15 16  1  0
 16 17  2  0
 17 18  1  0
 18 19  2  0
 19 20  1  0
 20 21  2  0
 21 22  1  0
 22 23  2  0
 23 24  1  0
 24 25  2  0
 14 26  1  0
 26 27  2  0
 27 28  1  0
 28 29  2  0
 29 30  1  0
 29 31  1  0
 31 32  2  0
 32  9  1  0
 25 16  1  0
 32 26  1  0
 25 20  1  0
  1 33  1  0
  1 34  1  0
  1 35  1  0
  2 36  1  0
  2 37  1  0
  7 38  1  0
  7 39  1  0
  7 40  1  0
  8 41  1  0
  8 42  1  0
 15 43  1  0
 15 44  1  0
 17 45  1  0
 18 46  1  0
 19 47  1  0
 21 48  1  0
 22 49  1  0
 23 50  1  0
 24 51  1  0
 27 52  1  0
 28 53  1  0
 31 54  1  0
M  CHG  1  13  -1
M  END
>  <meeko>  (420) 
{"free_energy": -6.13, "intermolecular_energy": -8.52, "internal_energy": -2.02, "cluster_size": 326, "cluster_id": 11, "rank_in_cluster": 109}

$$$$

     RDKit          3D

 54 57  0  0  0  0  0  0  0  0999 V2000
   12.2520   36.9560   18.3830 C   0  0  0  0  0  0  0  0  0  0  0  0
   13.0430   36.5030   17.1530 C   0  0  0  0  0  0  0  0  0  0  0  0
   12.4540   37.0590   15.9880 O   0  0  0  0  0  0  0  0  0  0  0  0
   12.8870   38.2460   15.5120 C   0  0  0  0  0  0  0  0  0  0  0  0
   14.0410   38.4410   15.1270 O   0  0  0  0  0  0  0  0  0  0  0  0
   11.8490   39.1860   15.5170 N   0  0  0  0  0  0  0  0  0  0  0  0
   12.0470   40.5650   15.9780 C   0  0  0  0  0  0  0  0  0  0  0  0
   10.4920   38.8250   15.0850 C   0  0  0  0  0  0  0  0  0  0  0  0
    9.6940   38.1730   16.1890 C   0  0  0  0  0  0  0  0  0  0  0  0
    9.3700   38.6750   17.4370 C   0  0  0  0  0  0  0  0  0  0  0  0
    9.6800   40.0100   18.0380 C   0  0  0  0  0  0  0  0  0  0  0  0
   10.6850   40.1180   18.7730 O   0  0  0  0  0  0  0  0  0  0  0  0
    8.9380   40.9930   17.8240 O   0  0  0  0  0  1  0  0  0  0  0  0
    8.6650   37.6860   18.1560 N   0  0  0  0  0  0  0  0  0  0  0  0
    8.1130   37.7660   19.5110 C   0  0  0  0  0  0  0  0  0  0  0  0
    6.6050   38.0460   19.5770 C   0  0  0  0  0  0  0  0  0  0  0  0
    5.6650   37.0360   19.2550 C   0  0  0  0  0  0  0  0  0  0  0  0
    4.2830   37.2880   19.3140 C   0  0  0  0  0  0  0  0  0  0  0  0
    3.8160   38.5560   19.6950 C   0  0  0  0  0  0  0  0  0  0  0  0
    4.7300   39.5760   20.0190 C   0  0  0  0  0  0  0  0  0  0  0  0
    4.2440   40.8440   20.3990 C   0  0  0  0  0  0  0  0  0  0  0  0
    5.1390   41.8780   20.7260 C   0  0  0  0  0  0  0  0  0  0  0  0
    6.5250   41.6450   20.6740 C   0  0  0  0  0  0  0  0  0  0  0  0
    7.0170   40.3820   20.2950 C   0  0  0  0  0  0  0  0  0  0  0  0
    6.1300   39.3290   19.9620 C   0  0  0  0  0  0  0  0  0  0  0  0
    8.5390   36.5500   17.3680 C   0  0  0  0  0  0  0  0  0  0  0  0
    7.9440   35.2960   17.6150 C   0  0  0  0  0  0  0  0  0  0  0  0
    7.9520   34.3070   16.6170 C   0  0  0  0  0  0  0  0  0  0  0  0
    8.5530   34.5760   15.3750 C   0  0  0  0  0  0  0  0  0  0  0  0
    8.5610   33.6280   14.4080 F   0  0  0  0  0  0  0  0  0  0  0  0
    9.1490   35.8290   15.1370 C   0  0  0  0  0  0  0  0  0  0  0  0
    9.1630   36.8430   16.1250 C   0  0  0  0  0  0  0  0  0  0  0  0
   12.7856   36.6504   19.2951 H   0  0  0  0  0  0  0  0  0  0  0  0
   12.1474   38.0509   18.3688 H   0  0  0  0  0  0  0  0  0  0  0  0
   11.2547   36.4922   18.3688 H   0  0  0  0  0  0  0  0  0  0  0  0
   14.0845   36.8466   17.2384 H   0  0  0  0  0  0  0  0  0  0  0  0
   13.0265   35.4051   17.0871 H   0  0  0  0  0  0  0  0  0  0  0  0
   12.0502   40.5871   17.0778 H   0  0  0  0  0  0  0  0  0  0  0  0
   13.0087   40.9432   15.6009 H   0  0  0  0  0  0  0  0  0  0  0  0
   11.2306   41.1985   15.6009 H   0  0  0  0  0  0  0  0  0  0  0  0
    9.9691   39.7372   14.7618 H   0  0  0  0  0  0  0  0  0  0  0  0
   10.5821   38.1009   14.2619 H   0  0  0  0  0  0  0  0  0  0  0  0
    8.3054   36.8078   20.0159 H   0  0  0  0  0  0  0  0  0  0  0  0
    8.6078   38.6200   19.9967 H   0  0  0  0  0  0  0  0  0  0  0  0
    6.0217   36.0398   18.9544 H   0  0  0  0  0  0  0  0  0  0  0  0
    3.5675   36.4915   19.0616 H   0  0  0  0  0  0  0  0  0  0  0  0
    2.7346   38.7525   19.7403 H   0  0  0  0  0  0  0  0  0  0  0  0
    3.1598   41.0251   20.4398 H   0  0  0  0  0  0  0  0  0  0  0  0
    4.7563   42.8660   21.0216 H   0  0  0  0  0  0  0  0  0  0  0  0
    7.2267   42.4524   20.9303 H   0  0  0  0  0  0  0  0  0  0  0  0
    8.1029   40.2106   20.2569 H   0  0  0  0  0  0  0  0  0  0  0  0
    7.4738   35.0920   18.5883 H   0  0  0  0  0  0  0  0  0  0  0  0
    7.4901   33.3268   16.8067 H   0  0  0  0  0  0  0  0  0  0  0  0
    9.6150   36.0249   14.1600 H   0  0  0  0  0  0  0  0  0  0  0  0
  1  2  1  0
  2  3  1  0
  3  4  1  0
  4  5  2  0
  4  6  1  0
  6  7  1  0
  6  8  1  0
  8  9  1  0
  9 10  2  0
 10 11  1  0
 11 12  2  0
 11 13  1  0
 10 14  1  0
 14 15  1  0
 15 16  1  0
 16 17  2  0
 17 18  1  0
 18 19  2  0
 19 20  1  0
 20 21  2  0
 21 22  1  0
 22 23  2  0
 23 24  1  0
 24 25  2  0
 14 26  1  0
 26 27  2  0
 27 28  1  0
 28 29  2  0
 29 30  1  0
 29 31  1  0
 31 32  2  0
 32  9  1  0
 25 16  1  0
 32 26  1  0
 25 20  1  0
  1 33  1  0
  1 34  1  0
  1 35  1  0
  2 36  1  0
  2 37  1  0
  7 38  1  0
  7 39  1  0
  7 40  1  0
  8 41  1  0
  8 42  1  0
 15 43  1  0
 15 44  1  0
 17 45  1  0
 18 46  1  0
 19 47  1  0
 21 48  1  0
 22 49  1  0
 23 50  1  0
 24 51  1  0
 27 52  1  0
 28 53  1  0
 31 54  1  0
M  CHG  1  13  -1
M  END
>  <meeko>  (421) 
{"free_energy": -4.15, "intermolecular_energy": -6.53, "internal_energy": -2.39, "cluster_size": 2, "cluster_id": 176, "rank_in_cluster": 2}

$$$$

     RDKit          3D

 54 57  0  0  0  0  0  0  0  0999 V2000
   16.1340   41.3790   15.2240 C   0  0  0  0  0  0  0  0  0  0  0  0
   15.5280   41.0260   13.8630 C   0  0  0  0  0  0  0  0  0  0  0  0
   15.2020   39.6460   13.8400 O   0  0  0  0  0  0  0  0  0  0  0  0
   14.7370   39.0790   12.7060 C   0  0  0  0  0  0  0  0  0  0  0  0
   15.4230   38.3630   11.9750 O   0  0  0  0  0  0  0  0  0  0  0  0
   13.3930   39.4190   12.5040 N   0  0  0  0  0  0  0  0  0  0  0  0
   12.2970   38.6780   13.1390 C   0  0  0  0  0  0  0  0  0  0  0  0
   13.0120   40.5240   11.6140 C   0  0  0  0  0  0  0  0  0  0  0  0
   11.5370   40.5130   11.2880 C   0  0  0  0  0  0  0  0  0  0  0  0
   10.8500   39.6940   10.4090 C   0  0  0  0  0  0  0  0  0  0  0  0
   11.3530   38.5690    9.5610 C   0  0  0  0  0  0  0  0  0  0  0  0
   11.8420   38.8340    8.4420 O   0  0  0  0  0  0  0  0  0  0  0  0
   11.2690   37.3860    9.9570 O   0  0  0  0  0  1  0  0  0  0  0  0
    9.4950   40.0910   10.3830 N   0  0  0  0  0  0  0  0  0  0  0  0
    8.3920   39.5130    9.6110 C   0  0  0  0  0  0  0  0  0  0  0  0
    8.2370   37.9920    9.7460 C   0  0  0  0  0  0  0  0  0  0  0  0
    8.5040   37.3420   10.9770 C   0  0  0  0  0  0  0  0  0  0  0  0
    8.3640   35.9500   11.1060 C   0  0  0  0  0  0  0  0  0  0  0  0
    7.9560   35.1800   10.0040 C   0  0  0  0  0  0  0  0  0  0  0  0
    7.6870   35.8020    8.7710 C   0  0  0  0  0  0  0  0  0  0  0  0
    7.2780   35.0140    7.6750 C   0  0  0  0  0  0  0  0  0  0  0  0
    7.0040   35.6140    6.4330 C   0  0  0  0  0  0  0  0  0  0  0  0
    7.1370   37.0060    6.2840 C   0  0  0  0  0  0  0  0  0  0  0  0
    7.5460   37.7990    7.3740 C   0  0  0  0  0  0  0  0  0  0  0  0
    7.8250   37.2110    8.6330 C   0  0  0  0  0  0  0  0  0  0  0  0
    9.3170   41.1650   11.2450 C   0  0  0  0  0  0  0  0  0  0  0  0
    8.1770   41.9300   11.5690 C   0  0  0  0  0  0  0  0  0  0  0  0
    8.2780   42.9770   12.5010 C   0  0  0  0  0  0  0  0  0  0  0  0
    9.5160   43.2550   13.1060 C   0  0  0  0  0  0  0  0  0  0  0  0
    9.6190   44.2600   14.0070 F   0  0  0  0  0  0  0  0  0  0  0  0
   10.6500   42.4890   12.7740 C   0  0  0  0  0  0  0  0  0  0  0  0
   10.5810   41.4320   11.8340 C   0  0  0  0  0  0  0  0  0  0  0  0
   15.4825   40.9995   16.0250 H   0  0  0  0  0  0  0  0  0  0  0  0
   17.1295   40.9195   15.3124 H   0  0  0  0  0  0  0  0  0  0  0  0
   16.2254   42.4716   15.3124 H   0  0  0  0  0  0  0  0  0  0  0  0
   14.6176   41.6216   13.7003 H   0  0  0  0  0  0  0  0  0  0  0  0
   16.2546   41.2468   13.0672 H   0  0  0  0  0  0  0  0  0  0  0  0
   12.3949   38.7442   14.2326 H   0  0  0  0  0  0  0  0  0  0  0  0
   11.3342   39.1112   12.8302 H   0  0  0  0  0  0  0  0  0  0  0  0
   12.3403   37.6231   12.8302 H   0  0  0  0  0  0  0  0  0  0  0  0
   13.2587   41.4763   12.1063 H   0  0  0  0  0  0  0  0  0  0  0  0
   13.5665   40.4044   10.6716 H   0  0  0  0  0  0  0  0  0  0  0  0
    7.4562   39.9832    9.9474 H   0  0  0  0  0  0  0  0  0  0  0  0
    8.6207   39.7074    8.5527 H   0  0  0  0  0  0  0  0  0  0  0  0
    8.8258   37.9366   11.8447 H   0  0  0  0  0  0  0  0  0  0  0  0
    8.5738   35.4631   12.0698 H   0  0  0  0  0  0  0  0  0  0  0  0
    7.8468   34.0901   10.1052 H   0  0  0  0  0  0  0  0  0  0  0  0
    7.1729   33.9253    7.7923 H   0  0  0  0  0  0  0  0  0  0  0  0
    6.6864   34.9960    5.5802 H   0  0  0  0  0  0  0  0  0  0  0  0
    6.9211   37.4769    5.3136 H   0  0  0  0  0  0  0  0  0  0  0  0
    7.6500   38.8866    7.2466 H   0  0  0  0  0  0  0  0  0  0  0  0
    7.2106   41.7074   11.0930 H   0  0  0  0  0  0  0  0  0  0  0  0
    7.3918   43.5766   12.7561 H   0  0  0  0  0  0  0  0  0  0  0  0
   11.6121   42.7170   13.2561 H   0  0  0  0  0  0  0  0  0  0  0  0
  1  2  1  0
  2  3  1  0
  3  4  1  0
  4  5  2  0
  4  6  1  0
  6  7  1  0
  6  8  1  0
  8  9  1  0
  9 10  2  0
 10 11  1  0
 11 12  2  0
 11 13  1  0
 10 14  1  0
 14 15  1  0
 15 16  1  0
 16 17  2  0
 17 18  1  0
 18 19  2  0
 19 20  1  0
 20 21  2  0
 21 22  1  0
 22 23  2  0
 23 24  1  0
 24 25  2  0
 14 26  1  0
 26 27  2  0
 27 28  1  0
 28 29  2  0
 29 30  1  0
 29 31  1  0
 31 32  2  0
 32  9  1  0
 25 16  1  0
 32 26  1  0
 25 20  1  0
  1 33  1  0
  1 34  1  0
  1 35  1  0
  2 36  1  0
  2 37  1  0
  7 38  1  0
  7 39  1  0
  7 40  1  0
  8 41  1  0
  8 42  1  0
 15 43  1  0
 15 44  1  0
 17 45  1  0
 18 46  1  0
 19 47  1  0
 21 48  1  0
 22 49  1  0
 23 50  1  0
 24 51  1  0
 27 52  1  0
 28 53  1  0
 31 54  1  0
M  CHG  1  13  -1
M  END
>  <meeko>  (422) 
{"free_energy": -7.13, "intermolecular_energy": -9.52, "internal_energy": -1.71, "cluster_size": 417, "cluster_id": 2, "rank_in_cluster": 113}

$$$$

     RDKit          3D

 54 57  0  0  0  0  0  0  0  0999 V2000
   10.0220   40.9030   20.1020 C   0  0  0  0  0  0  0  0  0  0  0  0
    8.6450   41.1840   19.4960 C   0  0  0  0  0  0  0  0  0  0  0  0
    8.3580   40.2020   18.5130 O   0  0  0  0  0  0  0  0  0  0  0  0
    9.2580   39.2330   18.2430 C   0  0  0  0  0  0  0  0  0  0  0  0
    9.3910   38.2210   18.9330 O   0  0  0  0  0  0  0  0  0  0  0  0
    9.9860   39.5460   17.0880 N   0  0  0  0  0  0  0  0  0  0  0  0
    9.6510   40.6970   16.2420 C   0  0  0  0  0  0  0  0  0  0  0  0
   11.1130   38.7130   16.6490 C   0  0  0  0  0  0  0  0  0  0  0  0
   10.7230   37.7570   15.5460 C   0  0  0  0  0  0  0  0  0  0  0  0
   11.0370   37.8130   14.1990 C   0  0  0  0  0  0  0  0  0  0  0  0
   11.8750   38.8050   13.4560 C   0  0  0  0  0  0  0  0  0  0  0  0
   13.0110   38.4590   13.0680 O   0  0  0  0  0  0  0  0  0  0  0  0
   11.4530   39.9630   13.2440 O   0  0  0  0  0  1  0  0  0  0  0  0
   10.3990   36.7410   13.5390 N   0  0  0  0  0  0  0  0  0  0  0  0
   10.4480   36.3890   12.1170 C   0  0  0  0  0  0  0  0  0  0  0  0
    9.5730   37.2610   11.2070 C   0  0  0  0  0  0  0  0  0  0  0  0
    9.4470   38.6530   11.4380 C   0  0  0  0  0  0  0  0  0  0  0  0
    8.6470   39.4560   10.6060 C   0  0  0  0  0  0  0  0  0  0  0  0
    7.9560   38.8790    9.5280 C   0  0  0  0  0  0  0  0  0  0  0  0
    8.0640   37.4980    9.2790 C   0  0  0  0  0  0  0  0  0  0  0  0
    7.3620   36.9370    8.1920 C   0  0  0  0  0  0  0  0  0  0  0  0
    7.4550   35.5590    7.9240 C   0  0  0  0  0  0  0  0  0  0  0  0
    8.2510   34.7400    8.7440 C   0  0  0  0  0  0  0  0  0  0  0  0
    8.9530   35.2940    9.8310 C   0  0  0  0  0  0  0  0  0  0  0  0
    8.8720   36.6800   10.1150 C   0  0  0  0  0  0  0  0  0  0  0  0
    9.6760   35.9990   14.4640 C   0  0  0  0  0  0  0  0  0  0  0  0
    8.8640   34.8550   14.3220 C   0  0  0  0  0  0  0  0  0  0  0  0
    8.2450   34.2910   15.4500 C   0  0  0  0  0  0  0  0  0  0  0  0
    8.4400   34.8720   16.7150 C   0  0  0  0  0  0  0  0  0  0  0  0
    7.8490   34.3310   17.8070 F   0  0  0  0  0  0  0  0  0  0  0  0
    9.2500   36.0160   16.8490 C   0  0  0  0  0  0  0  0  0  0  0  0
    9.8820   36.6110   15.7300 C   0  0  0  0  0  0  0  0  0  0  0  0
    9.9495   40.9178   21.1995 H   0  0  0  0  0  0  0  0  0  0  0  0
   10.3735   39.9146   19.7710 H   0  0  0  0  0  0  0  0  0  0  0  0
   10.7327   41.6746   19.7710 H   0  0  0  0  0  0  0  0  0  0  0  0
    7.8809   41.1474   20.2865 H   0  0  0  0  0  0  0  0  0  0  0  0
    8.6419   42.1818   19.0331 H   0  0  0  0  0  0  0  0  0  0  0  0
    9.4002   41.5588   16.8779 H   0  0  0  0  0  0  0  0  0  0  0  0
   10.5132   40.9486   15.6069 H   0  0  0  0  0  0  0  0  0  0  0  0
    8.7885   40.4466   15.6069 H   0  0  0  0  0  0  0  0  0  0  0  0
   11.9158   39.3690   16.2813 H   0  0  0  0  0  0  0  0  0  0  0  0
   11.4459   38.1155   17.5105 H   0  0  0  0  0  0  0  0  0  0  0  0
   11.4905   36.4795   11.7780 H   0  0  0  0  0  0  0  0  0  0  0  0
   10.0527   35.3655   12.0379 H   0  0  0  0  0  0  0  0  0  0  0  0
    9.9833   39.1127   12.2812 H   0  0  0  0  0  0  0  0  0  0  0  0
    8.5624   40.5356   10.7993 H   0  0  0  0  0  0  0  0  0  0  0  0
    7.3297   39.5072    8.8775 H   0  0  0  0  0  0  0  0  0  0  0  0
    6.7396   37.5791    7.5515 H   0  0  0  0  0  0  0  0  0  0  0  0
    6.9067   35.1237    7.0756 H   0  0  0  0  0  0  0  0  0  0  0  0
    8.3254   33.6625    8.5353 H   0  0  0  0  0  0  0  0  0  0  0  0
    9.5714   34.6438   10.4672 H   0  0  0  0  0  0  0  0  0  0  0  0
    8.7154   34.4048   13.3294 H   0  0  0  0  0  0  0  0  0  0  0  0
    7.6106   33.3987   15.3437 H   0  0  0  0  0  0  0  0  0  0  0  0
    9.3952   36.4577   17.8459 H   0  0  0  0  0  0  0  0  0  0  0  0
  1  2  1  0
  2  3  1  0
  3  4  1  0
  4  5  2  0
  4  6  1  0
  6  7  1  0
  6  8  1  0
  8  9  1  0
  9 10  2  0
 10 11  1  0
 11 12  2  0
 11 13  1  0
 10 14  1  0
 14 15  1  0
 15 16  1  0
 16 17  2  0
 17 18  1  0
 18 19  2  0
 19 20  1  0
 20 21  2  0
 21 22  1  0
 22 23  2  0
 23 24  1  0
 24 25  2  0
 14 26  1  0
 26 27  2  0
 27 28  1  0
 28 29  2  0
 29 30  1  0
 29 31  1  0
 31 32  2  0
 32  9  1  0
 25 16  1  0
 32 26  1  0
 25 20  1  0
  1 33  1  0
  1 34  1  0
  1 35  1  0
  2 36  1  0
  2 37  1  0
  7 38  1  0
  7 39  1  0
  7 40  1  0
  8 41  1  0
  8 42  1  0
 15 43  1  0
 15 44  1  0
 17 45  1  0
 18 46  1  0
 19 47  1  0
 21 48  1  0
 22 49  1  0
 23 50  1  0
 24 51  1  0
 27 52  1  0
 28 53  1  0
 31 54  1  0
M  CHG  1  13  -1
M  END
>  <meeko>  (423) 
{"free_energy": -6.61, "intermolecular_energy": -9.0, "internal_energy": -1.78, "cluster_size": 326, "cluster_id": 11, "rank_in_cluster": 24}

$$$$

     RDKit          3D

 54 57  0  0  0  0  0  0  0  0999 V2000
    9.0340   44.7930   14.6380 C   0  0  0  0  0  0  0  0  0  0  0  0
   10.3730   45.3680   15.1060 C   0  0  0  0  0  0  0  0  0  0  0  0
   11.3960   44.4100   14.8830 O   0  0  0  0  0  0  0  0  0  0  0  0
   11.1870   43.1130   15.1930 C   0  0  0  0  0  0  0  0  0  0  0  0
   10.8880   42.7260   16.3240 O   0  0  0  0  0  0  0  0  0  0  0  0
   11.3520   42.3050   14.0610 N   0  0  0  0  0  0  0  0  0  0  0  0
   11.5210   40.8500   14.1580 C   0  0  0  0  0  0  0  0  0  0  0  0
   11.3950   42.8830   12.7110 C   0  0  0  0  0  0  0  0  0  0  0  0
   10.9390   41.9050   11.6540 C   0  0  0  0  0  0  0  0  0  0  0  0
    9.6490   41.5710   11.2800 C   0  0  0  0  0  0  0  0  0  0  0  0
    8.3430   42.1020   11.7810 C   0  0  0  0  0  0  0  0  0  0  0  0
    8.2370   42.3900   12.9920 O   0  0  0  0  0  0  0  0  0  0  0  0
    7.3720   42.2370   11.0050 O   0  0  0  0  0  1  0  0  0  0  0  0
    9.7090   40.5630   10.2940 N   0  0  0  0  0  0  0  0  0  0  0  0
    8.6000   39.9070    9.5950 C   0  0  0  0  0  0  0  0  0  0  0  0
    8.5020   38.3920    9.8210 C   0  0  0  0  0  0  0  0  0  0  0  0
    8.9140   37.8120   11.0470 C   0  0  0  0  0  0  0  0  0  0  0  0
    8.8260   36.4260   11.2580 C   0  0  0  0  0  0  0  0  0  0  0  0
    8.3250   35.5920   10.2450 C   0  0  0  0  0  0  0  0  0  0  0  0
    7.9110   36.1430    9.0180 C   0  0  0  0  0  0  0  0  0  0  0  0
    7.4120   35.2900    8.0120 C   0  0  0  0  0  0  0  0  0  0  0  0
    6.9920   35.8190    6.7780 C   0  0  0  0  0  0  0  0  0  0  0  0
    7.0720   37.2040    6.5480 C   0  0  0  0  0  0  0  0  0  0  0  0
    7.5700   38.0610    7.5480 C   0  0  0  0  0  0  0  0  0  0  0  0
    7.9970   37.5450    8.7970 C   0  0  0  0  0  0  0  0  0  0  0  0
   11.0380   40.2500   10.0390 C   0  0  0  0  0  0  0  0  0  0  0  0
   11.6320   39.3160    9.1660 C   0  0  0  0  0  0  0  0  0  0  0  0
   13.0310   39.2110    9.0990 C   0  0  0  0  0  0  0  0  0  0  0  0
   13.8310   40.0410    9.9030 C   0  0  0  0  0  0  0  0  0  0  0  0
   15.1810   39.9480    9.8400 F   0  0  0  0  0  0  0  0  0  0  0  0
   13.2300   40.9700   10.7750 C   0  0  0  0  0  0  0  0  0  0  0  0
   11.8230   41.0940   10.8690 C   0  0  0  0  0  0  0  0  0  0  0  0
    8.4218   44.5301   15.5133 H   0  0  0  0  0  0  0  0  0  0  0  0
    8.5045   45.5431   14.0322 H   0  0  0  0  0  0  0  0  0  0  0  0
    9.2133   43.8925   14.0322 H   0  0  0  0  0  0  0  0  0  0  0  0
   10.5976   46.2844   14.5405 H   0  0  0  0  0  0  0  0  0  0  0  0
   10.3179   45.6069   16.1783 H   0  0  0  0  0  0  0  0  0  0  0  0
   11.5553   40.5547   15.2171 H   0  0  0  0  0  0  0  0  0  0  0  0
   10.6750   40.3489   13.6648 H   0  0  0  0  0  0  0  0  0  0  0  0
   12.4593   40.5562   13.6648 H   0  0  0  0  0  0  0  0  0  0  0  0
   10.7390   43.7655   12.6830 H   0  0  0  0  0  0  0  0  0  0  0  0
   12.4392   43.1516   12.4930 H   0  0  0  0  0  0  0  0  0  0  0  0
    7.6607   40.3654    9.9377 H   0  0  0  0  0  0  0  0  0  0  0  0
    8.7853   40.0481    8.5199 H   0  0  0  0  0  0  0  0  0  0  0  0
    9.3088   38.4573   11.8456 H   0  0  0  0  0  0  0  0  0  0  0  0
    9.1494   35.9939   12.2165 H   0  0  0  0  0  0  0  0  0  0  0  0
    8.2561   34.5068   10.4109 H   0  0  0  0  0  0  0  0  0  0  0  0
    7.3509   34.2067    8.1929 H   0  0  0  0  0  0  0  0  0  0  0  0
    6.6022   35.1514    5.9955 H   0  0  0  0  0  0  0  0  0  0  0  0
    6.7444   37.6193    5.5835 H   0  0  0  0  0  0  0  0  0  0  0  0
    7.6283   39.1429    7.3578 H   0  0  0  0  0  0  0  0  0  0  0  0
   11.0006   38.6702    8.5380 H   0  0  0  0  0  0  0  0  0  0  0  0
   13.4985   38.4824    8.4203 H   0  0  0  0  0  0  0  0  0  0  0  0
   13.8689   41.6139   11.3972 H   0  0  0  0  0  0  0  0  0  0  0  0
  1  2  1  0
  2  3  1  0
  3  4  1  0
  4  5  2  0
  4  6  1  0
  6  7  1  0
  6  8  1  0
  8  9  1  0
  9 10  2  0
 10 11  1  0
 11 12  2  0
 11 13  1  0
 10 14  1  0
 14 15  1  0
 15 16  1  0
 16 17  2  0
 17 18  1  0
 18 19  2  0
 19 20  1  0
 20 21  2  0
 21 22  1  0
 22 23  2  0
 23 24  1  0
 24 25  2  0
 14 26  1  0
 26 27  2  0
 27 28  1  0
 28 29  2  0
 29 30  1  0
 29 31  1  0
 31 32  2  0
 32  9  1  0
 25 16  1  0
 32 26  1  0
 25 20  1  0
  1 33  1  0
  1 34  1  0
  1 35  1  0
  2 36  1  0
  2 37  1  0
  7 38  1  0
  7 39  1  0
  7 40  1  0
  8 41  1  0
  8 42  1  0
 15 43  1  0
 15 44  1  0
 17 45  1  0
 18 46  1  0
 19 47  1  0
 21 48  1  0
 22 49  1  0
 23 50  1  0
 24 51  1  0
 27 52  1  0
 28 53  1  0
 31 54  1  0
M  CHG  1  13  -1
M  END
>  <meeko>  (424) 
{"free_energy": -6.73, "intermolecular_energy": -9.11, "internal_energy": -1.9, "cluster_size": 210, "cluster_id": 15, "rank_in_cluster": 21}

$$$$

     RDKit          3D

 54 57  0  0  0  0  0  0  0  0999 V2000
   16.9190   41.8210   12.2850 C   0  0  0  0  0  0  0  0  0  0  0  0
   16.2150   41.1400   11.1090 C   0  0  0  0  0  0  0  0  0  0  0  0
   14.9190   41.6940   10.9550 O   0  0  0  0  0  0  0  0  0  0  0  0
   13.9860   41.5080   11.9140 C   0  0  0  0  0  0  0  0  0  0  0  0
   14.1360   40.7410   12.8660 O   0  0  0  0  0  0  0  0  0  0  0  0
   12.8600   42.3040   11.6650 N   0  0  0  0  0  0  0  0  0  0  0  0
   12.4490   43.3790   12.5750 C   0  0  0  0  0  0  0  0  0  0  0  0
   12.0140   42.0790   10.4860 C   0  0  0  0  0  0  0  0  0  0  0  0
   11.3080   40.7440   10.5330 C   0  0  0  0  0  0  0  0  0  0  0  0
    9.9640   40.4810   10.7290 C   0  0  0  0  0  0  0  0  0  0  0  0
    8.8230   41.4310   10.9130 C   0  0  0  0  0  0  0  0  0  0  0  0
    8.9240   42.3310   11.7750 O   0  0  0  0  0  0  0  0  0  0  0  0
    7.7810   41.3140   10.2310 O   0  0  0  0  0  1  0  0  0  0  0  0
    9.7750   39.0830   10.7610 N   0  0  0  0  0  0  0  0  0  0  0  0
    8.5250   38.3370   10.9330 C   0  0  0  0  0  0  0  0  0  0  0  0
    8.3040   37.2070    9.9190 C   0  0  0  0  0  0  0  0  0  0  0  0
    8.5930   35.8610   10.2570 C   0  0  0  0  0  0  0  0  0  0  0  0
    8.3920   34.8230    9.3310 C   0  0  0  0  0  0  0  0  0  0  0  0
    7.8980   35.1110    8.0490 C   0  0  0  0  0  0  0  0  0  0  0  0
    7.6040   36.4400    7.6890 C   0  0  0  0  0  0  0  0  0  0  0  0
    7.1090   36.7110    6.3960 C   0  0  0  0  0  0  0  0  0  0  0  0
    6.8090   38.0310    6.0150 C   0  0  0  0  0  0  0  0  0  0  0  0
    7.0030   39.0840    6.9270 C   0  0  0  0  0  0  0  0  0  0  0  0
    7.4980   38.8200    8.2190 C   0  0  0  0  0  0  0  0  0  0  0  0
    7.8050   37.4960    8.6200 C   0  0  0  0  0  0  0  0  0  0  0  0
   11.0000   38.4510   10.5860 C   0  0  0  0  0  0  0  0  0  0  0  0
   11.3570   37.0880   10.5530 C   0  0  0  0  0  0  0  0  0  0  0  0
   12.6980   36.7200   10.3470 C   0  0  0  0  0  0  0  0  0  0  0  0
   13.6750   37.7150   10.1740 C   0  0  0  0  0  0  0  0  0  0  0  0
   14.9680   37.3670    9.9720 F   0  0  0  0  0  0  0  0  0  0  0  0
   13.3100   39.0750   10.2120 C   0  0  0  0  0  0  0  0  0  0  0  0
   11.9690   39.4770   10.4240 C   0  0  0  0  0  0  0  0  0  0  0  0
   16.5149   41.4301   13.2305 H   0  0  0  0  0  0  0  0  0  0  0  0
   17.9985   41.6156   12.2349 H   0  0  0  0  0  0  0  0  0  0  0  0
   16.7496   42.9067   12.2349 H   0  0  0  0  0  0  0  0  0  0  0  0
   16.7958   41.3022   10.1890 H   0  0  0  0  0  0  0  0  0  0  0  0
   16.1338   40.0603   11.3029 H   0  0  0  0  0  0  0  0  0  0  0  0
   12.5760   43.0468   13.6159 H   0  0  0  0  0  0  0  0  0  0  0  0
   13.0704   44.2688   12.3957 H   0  0  0  0  0  0  0  0  0  0  0  0
   11.3925   43.6273   12.3957 H   0  0  0  0  0  0  0  0  0  0  0  0
   11.2586   42.8770   10.4352 H   0  0  0  0  0  0  0  0  0  0  0  0
   12.6646   42.0845    9.5990 H   0  0  0  0  0  0  0  0  0  0  0  0
    8.5255   37.8967   11.9410 H   0  0  0  0  0  0  0  0  0  0  0  0
    7.7100   39.0586   10.7743 H   0  0  0  0  0  0  0  0  0  0  0  0
    8.9804   35.6254   11.2592 H   0  0  0  0  0  0  0  0  0  0  0  0
    8.6219   33.7844    9.6110 H   0  0  0  0  0  0  0  0  0  0  0  0
    7.7405   34.2978    7.3252 H   0  0  0  0  0  0  0  0  0  0  0  0
    6.9572   35.8869    5.6834 H   0  0  0  0  0  0  0  0  0  0  0  0
    6.4235   38.2395    5.0061 H   0  0  0  0  0  0  0  0  0  0  0  0
    6.7675   40.1167    6.6304 H   0  0  0  0  0  0  0  0  0  0  0  0
    7.6479   39.6506    8.9244 H   0  0  0  0  0  0  0  0  0  0  0  0
   10.5877   36.3135   10.6882 H   0  0  0  0  0  0  0  0  0  0  0  0
   12.9814   35.6574   10.3213 H   0  0  0  0  0  0  0  0  0  0  0  0
   14.0853   39.8430   10.0737 H   0  0  0  0  0  0  0  0  0  0  0  0
  1  2  1  0
  2  3  1  0
  3  4  1  0
  4  5  2  0
  4  6  1  0
  6  7  1  0
  6  8  1  0
  8  9  1  0
  9 10  2  0
 10 11  1  0
 11 12  2  0
 11 13  1  0
 10 14  1  0
 14 15  1  0
 15 16  1  0
 16 17  2  0
 17 18  1  0
 18 19  2  0
 19 20  1  0
 20 21  2  0
 21 22  1  0
 22 23  2  0
 23 24  1  0
 24 25  2  0
 14 26  1  0
 26 27  2  0
 27 28  1  0
 28 29  2  0
 29 30  1  0
 29 31  1  0
 31 32  2  0
 32  9  1  0
 25 16  1  0
 32 26  1  0
 25 20  1  0
  1 33  1  0
  1 34  1  0
  1 35  1  0
  2 36  1  0
  2 37  1  0
  7 38  1  0
  7 39  1  0
  7 40  1  0
  8 41  1  0
  8 42  1  0
 15 43  1  0
 15 44  1  0
 17 45  1  0
 18 46  1  0
 19 47  1  0
 21 48  1  0
 22 49  1  0
 23 50  1  0
 24 51  1  0
 27 52  1  0
 28 53  1  0
 31 54  1  0
M  CHG  1  13  -1
M  END
>  <meeko>  (425) 
{"free_energy": -6.72, "intermolecular_energy": -9.11, "internal_energy": -1.93, "cluster_size": 96, "cluster_id": 3, "rank_in_cluster": 25}

$$$$

     RDKit          3D

 54 57  0  0  0  0  0  0  0  0999 V2000
   13.4050   35.7520   17.5020 C   0  0  0  0  0  0  0  0  0  0  0  0
   12.6530   36.8900   18.1960 C   0  0  0  0  0  0  0  0  0  0  0  0
   13.0790   38.1300   17.6540 O   0  0  0  0  0  0  0  0  0  0  0  0
   13.3630   38.2320   16.3380 C   0  0  0  0  0  0  0  0  0  0  0  0
   14.3830   37.7670   15.8270 O   0  0  0  0  0  0  0  0  0  0  0  0
   12.3430   38.9190   15.6670 N   0  0  0  0  0  0  0  0  0  0  0  0
   12.2480   40.3830   15.6830 C   0  0  0  0  0  0  0  0  0  0  0  0
   11.2940   38.2000   14.9330 C   0  0  0  0  0  0  0  0  0  0  0  0
   10.3990   37.4010   15.8510 C   0  0  0  0  0  0  0  0  0  0  0  0
    9.5490   37.8540   16.8430 C   0  0  0  0  0  0  0  0  0  0  0  0
    9.2430   39.2550   17.2710 C   0  0  0  0  0  0  0  0  0  0  0  0
    8.5890   39.4340   18.3200 O   0  0  0  0  0  0  0  0  0  0  0  0
    9.6180   40.2280   16.5800 O   0  0  0  0  0  1  0  0  0  0  0  0
    8.9630   36.7410   17.4840 N   0  0  0  0  0  0  0  0  0  0  0  0
    7.9940   36.7290   18.5830 C   0  0  0  0  0  0  0  0  0  0  0  0
    6.5320   36.9230   18.1570 C   0  0  0  0  0  0  0  0  0  0  0  0
    6.0000   36.2180   17.0480 C   0  0  0  0  0  0  0  0  0  0  0  0
    4.6620   36.3920   16.6540 C   0  0  0  0  0  0  0  0  0  0  0  0
    3.8310   37.2760   17.3610 C   0  0  0  0  0  0  0  0  0  0  0  0
    4.3370   37.9890   18.4650 C   0  0  0  0  0  0  0  0  0  0  0  0
    3.4880   38.8730   19.1630 C   0  0  0  0  0  0  0  0  0  0  0  0
    3.9720   39.5950   20.2680 C   0  0  0  0  0  0  0  0  0  0  0  0
    5.3070   39.4340   20.6780 C   0  0  0  0  0  0  0  0  0  0  0  0
    6.1600   38.5540   19.9850 C   0  0  0  0  0  0  0  0  0  0  0  0
    5.6890   37.8180   18.8700 C   0  0  0  0  0  0  0  0  0  0  0  0
    9.4390   35.5750   16.9010 C   0  0  0  0  0  0  0  0  0  0  0  0
    9.1850   34.2150   17.1750 C   0  0  0  0  0  0  0  0  0  0  0  0
    9.8080   33.2170   16.4080 C   0  0  0  0  0  0  0  0  0  0  0  0
   10.6830   33.5810   15.3690 C   0  0  0  0  0  0  0  0  0  0  0  0
   11.2840   32.6230   14.6240 F   0  0  0  0  0  0  0  0  0  0  0  0
   10.9350   34.9410   15.1040 C   0  0  0  0  0  0  0  0  0  0  0  0
   10.3270   35.9690   15.8640 C   0  0  0  0  0  0  0  0  0  0  0  0
   13.8444   35.0870   18.2601 H   0  0  0  0  0  0  0  0  0  0  0  0
   12.7062   35.1804   16.8736 H   0  0  0  0  0  0  0  0  0  0  0  0
   14.2049   36.1707   16.8736 H   0  0  0  0  0  0  0  0  0  0  0  0
   11.5718   36.7695   18.0332 H   0  0  0  0  0  0  0  0  0  0  0  0
   12.8630   36.8671   19.2755 H   0  0  0  0  0  0  0  0  0  0  0  0
   12.2250   40.7376   16.7240 H   0  0  0  0  0  0  0  0  0  0  0  0
   13.1202   40.8127   15.1685 H   0  0  0  0  0  0  0  0  0  0  0  0
   11.3276   40.6964   15.1685 H   0  0  0  0  0  0  0  0  0  0  0  0
   10.6793   38.9310   14.3873 H   0  0  0  0  0  0  0  0  0  0  0  0
   11.7856   37.4964   14.2450 H   0  0  0  0  0  0  0  0  0  0  0  0
    8.0741   35.7607   19.0988 H   0  0  0  0  0  0  0  0  0  0  0  0
    8.2448   37.5861   19.2252 H   0  0  0  0  0  0  0  0  0  0  0  0
    6.6440   35.5244   16.4875 H   0  0  0  0  0  0  0  0  0  0  0  0
    4.2658   35.8356   15.7917 H   0  0  0  0  0  0  0  0  0  0  0  0
    2.7840   37.4117   17.0522 H   0  0  0  0  0  0  0  0  0  0  0  0
    2.4434   38.9980   18.8416 H   0  0  0  0  0  0  0  0  0  0  0  0
    3.3078   40.2841   20.8103 H   0  0  0  0  0  0  0  0  0  0  0  0
    5.6865   39.9975   21.5432 H   0  0  0  0  0  0  0  0  0  0  0  0
    7.2034   38.4367   20.3129 H   0  0  0  0  0  0  0  0  0  0  0  0
    8.4995   33.9362   17.9888 H   0  0  0  0  0  0  0  0  0  0  0  0
    9.6124   32.1553   16.6190 H   0  0  0  0  0  0  0  0  0  0  0  0
   11.6205   35.2109   14.2871 H   0  0  0  0  0  0  0  0  0  0  0  0
  1  2  1  0
  2  3  1  0
  3  4  1  0
  4  5  2  0
  4  6  1  0
  6  7  1  0
  6  8  1  0
  8  9  1  0
  9 10  2  0
 10 11  1  0
 11 12  2  0
 11 13  1  0
 10 14  1  0
 14 15  1  0
 15 16  1  0
 16 17  2  0
 17 18  1  0
 18 19  2  0
 19 20  1  0
 20 21  2  0
 21 22  1  0
 22 23  2  0
 23 24  1  0
 24 25  2  0
 14 26  1  0
 26 27  2  0
 27 28  1  0
 28 29  2  0
 29 30  1  0
 29 31  1  0
 31 32  2  0
 32  9  1  0
 25 16  1  0
 32 26  1  0
 25 20  1  0
  1 33  1  0
  1 34  1  0
  1 35  1  0
  2 36  1  0
  2 37  1  0
  7 38  1  0
  7 39  1  0
  7 40  1  0
  8 41  1  0
  8 42  1  0
 15 43  1  0
 15 44  1  0
 17 45  1  0
 18 46  1  0
 19 47  1  0
 21 48  1  0
 22 49  1  0
 23 50  1  0
 24 51  1  0
 27 52  1  0
 28 53  1  0
 31 54  1  0
M  CHG  1  13  -1
M  END
>  <meeko>  (426) 
{"free_energy": -6.13, "intermolecular_energy": -8.52, "internal_energy": -2.07, "cluster_size": 136, "cluster_id": 17, "rank_in_cluster": 36}

$$$$

     RDKit          3D

 54 57  0  0  0  0  0  0  0  0999 V2000
   17.2670   37.3410   12.4590 C   0  0  0  0  0  0  0  0  0  0  0  0
   17.6800   38.4210   11.4570 C   0  0  0  0  0  0  0  0  0  0  0  0
   16.5690   39.2630   11.1930 O   0  0  0  0  0  0  0  0  0  0  0  0
   15.6820   38.9300   10.2310 C   0  0  0  0  0  0  0  0  0  0  0  0
   15.5590   37.7870    9.7880 O   0  0  0  0  0  0  0  0  0  0  0  0
   14.9440   40.0520    9.8340 N   0  0  0  0  0  0  0  0  0  0  0  0
   14.7430   40.3950    8.4220 C   0  0  0  0  0  0  0  0  0  0  0  0
   14.3540   40.9650   10.8230 C   0  0  0  0  0  0  0  0  0  0  0  0
   13.0100   40.4830   11.3160 C   0  0  0  0  0  0  0  0  0  0  0  0
   11.7560   40.7110   10.7760 C   0  0  0  0  0  0  0  0  0  0  0  0
   11.3720   41.4620    9.5400 C   0  0  0  0  0  0  0  0  0  0  0  0
   10.2230   41.9500    9.4670 O   0  0  0  0  0  0  0  0  0  0  0  0
   12.1780   41.5830    8.5920 O   0  0  0  0  0  1  0  0  0  0  0  0
   10.7860   40.1170   11.6120 N   0  0  0  0  0  0  0  0  0  0  0  0
    9.3310   40.0890   11.4410 C   0  0  0  0  0  0  0  0  0  0  0  0
    8.8390   39.2910   10.2270 C   0  0  0  0  0  0  0  0  0  0  0  0
    8.1350   39.9290    9.1750 C   0  0  0  0  0  0  0  0  0  0  0  0
    7.6830   39.2010    8.0610 C   0  0  0  0  0  0  0  0  0  0  0  0
    7.9250   37.8210    7.9780 C   0  0  0  0  0  0  0  0  0  0  0  0
    8.6200   37.1640    9.0110 C   0  0  0  0  0  0  0  0  0  0  0  0
    8.8540   35.7760    8.9110 C   0  0  0  0  0  0  0  0  0  0  0  0
    9.5460   35.0990    9.9310 C   0  0  0  0  0  0  0  0  0  0  0  0
   10.0080   35.8100   11.0530 C   0  0  0  0  0  0  0  0  0  0  0  0
    9.7770   37.1950   11.1590 C   0  0  0  0  0  0  0  0  0  0  0  0
    9.0820   37.8930   10.1410 C   0  0  0  0  0  0  0  0  0  0  0  0
   11.4200   39.5100   12.6880 C   0  0  0  0  0  0  0  0  0  0  0  0
   10.9150   38.8030   13.7990 C   0  0  0  0  0  0  0  0  0  0  0  0
   11.8000   38.2750   14.7540 C   0  0  0  0  0  0  0  0  0  0  0  0
   13.1850   38.4540   14.5950 C   0  0  0  0  0  0  0  0  0  0  0  0
   14.0430   37.9450   15.5110 F   0  0  0  0  0  0  0  0  0  0  0  0
   13.6810   39.1640   13.4850 C   0  0  0  0  0  0  0  0  0  0  0  0
   12.8150   39.7140   12.5090 C   0  0  0  0  0  0  0  0  0  0  0  0
   17.4106   37.7166   13.4829 H   0  0  0  0  0  0  0  0  0  0  0  0
   16.2078   37.0858   12.3073 H   0  0  0  0  0  0  0  0  0  0  0  0
   17.8856   36.4442   12.3073 H   0  0  0  0  0  0  0  0  0  0  0  0
   18.5022   39.0182   11.8781 H   0  0  0  0  0  0  0  0  0  0  0  0
   18.0154   37.9484   10.5221 H   0  0  0  0  0  0  0  0  0  0  0  0
   14.1880   41.3420    8.3501 H   0  0  0  0  0  0  0  0  0  0  0  0
   15.7200   40.5042    7.9285 H   0  0  0  0  0  0  0  0  0  0  0  0
   14.1702   39.5960    7.9285 H   0  0  0  0  0  0  0  0  0  0  0  0
   15.0373   41.0468   11.6811 H   0  0  0  0  0  0  0  0  0  0  0  0
   14.2045   41.9395   10.3351 H   0  0  0  0  0  0  0  0  0  0  0  0
    8.8892   39.6437   12.3446 H   0  0  0  0  0  0  0  0  0  0  0  0
    9.0199   41.1305   11.2724 H   0  0  0  0  0  0  0  0  0  0  0  0
    7.9395   41.0100    9.2314 H   0  0  0  0  0  0  0  0  0  0  0  0
    7.1392   39.7132    7.2536 H   0  0  0  0  0  0  0  0  0  0  0  0
    7.5714   37.2525    7.1052 H   0  0  0  0  0  0  0  0  0  0  0  0
    8.4938   35.2215    8.0319 H   0  0  0  0  0  0  0  0  0  0  0  0
    9.7254   34.0166    9.8515 H   0  0  0  0  0  0  0  0  0  0  0  0
   10.5517   35.2824   11.8505 H   0  0  0  0  0  0  0  0  0  0  0  0
   10.1403   37.7410   12.0421 H   0  0  0  0  0  0  0  0  0  0  0  0
    9.8301   38.6652   13.9176 H   0  0  0  0  0  0  0  0  0  0  0  0
   11.4105   37.7238   15.6226 H   0  0  0  0  0  0  0  0  0  0  0  0
   14.7675   39.2946   13.3733 H   0  0  0  0  0  0  0  0  0  0  0  0
  1  2  1  0
  2  3  1  0
  3  4  1  0
  4  5  2  0
  4  6  1  0
  6  7  1  0
  6  8  1  0
  8  9  1  0
  9 10  2  0
 10 11  1  0
 11 12  2  0
 11 13  1  0
 10 14  1  0
 14 15  1  0
 15 16  1  0
 16 17  2  0
 17 18  1  0
 18 19  2  0
 19 20  1  0
 20 21  2  0
 21 22  1  0
 22 23  2  0
 23 24  1  0
 24 25  2  0
 14 26  1  0
 26 27  2  0
 27 28  1  0
 28 29  2  0
 29 30  1  0
 29 31  1  0
 31 32  2  0
 32  9  1  0
 25 16  1  0
 32 26  1  0
 25 20  1  0
  1 33  1  0
  1 34  1  0
  1 35  1  0
  2 36  1  0
  2 37  1  0
  7 38  1  0
  7 39  1  0
  7 40  1  0
  8 41  1  0
  8 42  1  0
 15 43  1  0
 15 44  1  0
 17 45  1  0
 18 46  1  0
 19 47  1  0
 21 48  1  0
 22 49  1  0
 23 50  1  0
 24 51  1  0
 27 52  1  0
 28 53  1  0
 31 54  1  0
M  CHG  1  13  -1
M  END
>  <meeko>  (427) 
{"free_energy": -4.77, "intermolecular_energy": -7.16, "internal_energy": -2.1, "cluster_size": 292, "cluster_id": 10, "rank_in_cluster": 278}

$$$$

     RDKit          3D

 54 57  0  0  0  0  0  0  0  0999 V2000
   13.0220   42.5000   18.6210 C   0  0  0  0  0  0  0  0  0  0  0  0
   14.1450   42.0900   17.6640 C   0  0  0  0  0  0  0  0  0  0  0  0
   13.6460   41.1380   16.7390 O   0  0  0  0  0  0  0  0  0  0  0  0
   13.8650   39.8200   16.9400 C   0  0  0  0  0  0  0  0  0  0  0  0
   14.6240   39.3840   17.8070 O   0  0  0  0  0  0  0  0  0  0  0  0
   13.1120   39.0540   16.0400 N   0  0  0  0  0  0  0  0  0  0  0  0
   13.1680   37.5880   16.0270 C   0  0  0  0  0  0  0  0  0  0  0  0
   12.2450   39.6890   15.0390 C   0  0  0  0  0  0  0  0  0  0  0  0
   11.5880   38.6780   14.1280 C   0  0  0  0  0  0  0  0  0  0  0  0
   11.7910   38.4700   12.7760 C   0  0  0  0  0  0  0  0  0  0  0  0
   12.7350   39.1520   11.8360 C   0  0  0  0  0  0  0  0  0  0  0  0
   12.3520   40.1840   11.2450 O   0  0  0  0  0  0  0  0  0  0  0  0
   13.8780   38.6880   11.6330 O   0  0  0  0  0  1  0  0  0  0  0  0
   10.9080   37.4610   12.3340 N   0  0  0  0  0  0  0  0  0  0  0  0
   10.7680   36.8990   10.9870 C   0  0  0  0  0  0  0  0  0  0  0  0
    9.7510   37.6180   10.0910 C   0  0  0  0  0  0  0  0  0  0  0  0
    9.6900   39.0340   10.0530 C   0  0  0  0  0  0  0  0  0  0  0  0
    8.7600   39.6970    9.2340 C   0  0  0  0  0  0  0  0  0  0  0  0
    7.8710   38.9560    8.4390 C   0  0  0  0  0  0  0  0  0  0  0  0
    7.9110   37.5490    8.4600 C   0  0  0  0  0  0  0  0  0  0  0  0
    7.0110   36.8210    7.6550 C   0  0  0  0  0  0  0  0  0  0  0  0
    7.0320   35.4150    7.6610 C   0  0  0  0  0  0  0  0  0  0  0  0
    7.9560   34.7330    8.4730 C   0  0  0  0  0  0  0  0  0  0  0  0
    8.8570   35.4540    9.2800 C   0  0  0  0  0  0  0  0  0  0  0  0
    8.8490   36.8710    9.2860 C   0  0  0  0  0  0  0  0  0  0  0  0
   10.1400   37.0240   13.4050 C   0  0  0  0  0  0  0  0  0  0  0  0
    9.1170   36.0580   13.4950 C   0  0  0  0  0  0  0  0  0  0  0  0
    8.5000   35.8030   14.7320 C   0  0  0  0  0  0  0  0  0  0  0  0
    8.9100   36.5140   15.8730 C   0  0  0  0  0  0  0  0  0  0  0  0
    8.3220   36.2700   17.0690 F   0  0  0  0  0  0  0  0  0  0  0  0
    9.9290   37.4800   15.7750 C   0  0  0  0  0  0  0  0  0  0  0  0
   10.5640   37.7630   14.5410 C   0  0  0  0  0  0  0  0  0  0  0  0
   13.3619   42.3759   19.6598 H   0  0  0  0  0  0  0  0  0  0  0  0
   12.7567   43.5530   18.4453 H   0  0  0  0  0  0  0  0  0  0  0  0
   12.1407   41.8656   18.4453 H   0  0  0  0  0  0  0  0  0  0  0  0
   14.5071   42.9755   17.1211 H   0  0  0  0  0  0  0  0  0  0  0  0
   14.9749   41.6493   18.2359 H   0  0  0  0  0  0  0  0  0  0  0  0
   13.1823   37.2124   17.0608 H   0  0  0  0  0  0  0  0  0  0  0  0
   12.2843   37.1919   15.5052 H   0  0  0  0  0  0  0  0  0  0  0  0
   14.0793   37.2605   15.5052 H   0  0  0  0  0  0  0  0  0  0  0  0
   11.4611   40.2585   15.5597 H   0  0  0  0  0  0  0  0  0  0  0  0
   12.8718   40.3457   14.4178 H   0  0  0  0  0  0  0  0  0  0  0  0
   11.7502   36.9441   10.4939 H   0  0  0  0  0  0  0  0  0  0  0  0
   10.3938   35.8729   11.1176 H   0  0  0  0  0  0  0  0  0  0  0  0
   10.3812   39.6227   10.6741 H   0  0  0  0  0  0  0  0  0  0  0  0
    8.7286   40.7964    9.2158 H   0  0  0  0  0  0  0  0  0  0  0  0
    7.1425   39.4755    7.7991 H   0  0  0  0  0  0  0  0  0  0  0  0
    6.2893   37.3552    7.0195 H   0  0  0  0  0  0  0  0  0  0  0  0
    6.3278   34.8501    7.0325 H   0  0  0  0  0  0  0  0  0  0  0  0
    7.9749   33.6332    8.4777 H   0  0  0  0  0  0  0  0  0  0  0  0
    9.5749   34.9113    9.9126 H   0  0  0  0  0  0  0  0  0  0  0  0
    8.8020   35.5044   12.5981 H   0  0  0  0  0  0  0  0  0  0  0  0
    7.7006   35.0511   14.8066 H   0  0  0  0  0  0  0  0  0  0  0  0
   10.2392   38.0275   16.6772 H   0  0  0  0  0  0  0  0  0  0  0  0
  1  2  1  0
  2  3  1  0
  3  4  1  0
  4  5  2  0
  4  6  1  0
  6  7  1  0
  6  8  1  0
  8  9  1  0
  9 10  2  0
 10 11  1  0
 11 12  2  0
 11 13  1  0
 10 14  1  0
 14 15  1  0
 15 16  1  0
 16 17  2  0
 17 18  1  0
 18 19  2  0
 19 20  1  0
 20 21  2  0
 21 22  1  0
 22 23  2  0
 23 24  1  0
 24 25  2  0
 14 26  1  0
 26 27  2  0
 27 28  1  0
 28 29  2  0
 29 30  1  0
 29 31  1  0
 31 32  2  0
 32  9  1  0
 25 16  1  0
 32 26  1  0
 25 20  1  0
  1 33  1  0
  1 34  1  0
  1 35  1  0
  2 36  1  0
  2 37  1  0
  7 38  1  0
  7 39  1  0
  7 40  1  0
  8 41  1  0
  8 42  1  0
 15 43  1  0
 15 44  1  0
 17 45  1  0
 18 46  1  0
 19 47  1  0
 21 48  1  0
 22 49  1  0
 23 50  1  0
 24 51  1  0
 27 52  1  0
 28 53  1  0
 31 54  1  0
M  CHG  1  13  -1
M  END
>  <meeko>  (428) 
{"free_energy": -5.6, "intermolecular_energy": -7.99, "internal_energy": -1.52, "cluster_size": 160, "cluster_id": 12, "rank_in_cluster": 121}

$$$$

     RDKit          3D

 54 57  0  0  0  0  0  0  0  0999 V2000
   12.8760   42.1420    8.0720 C   0  0  0  0  0  0  0  0  0  0  0  0
   14.3170   41.6760    7.8500 C   0  0  0  0  0  0  0  0  0  0  0  0
   14.3740   40.2630    7.9630 O   0  0  0  0  0  0  0  0  0  0  0  0
   15.2290   39.6880    8.8360 C   0  0  0  0  0  0  0  0  0  0  0  0
   16.4520   39.6870    8.6870 O   0  0  0  0  0  0  0  0  0  0  0  0
   14.5280   39.1190    9.9070 N   0  0  0  0  0  0  0  0  0  0  0  0
   14.2990   37.6730   10.0090 C   0  0  0  0  0  0  0  0  0  0  0  0
   13.9580   39.9520   10.9740 C   0  0  0  0  0  0  0  0  0  0  0  0
   12.7170   39.3380   11.5780 C   0  0  0  0  0  0  0  0  0  0  0  0
   11.4770   39.1380   10.9970 C   0  0  0  0  0  0  0  0  0  0  0  0
   11.0180   39.4360    9.6050 C   0  0  0  0  0  0  0  0  0  0  0  0
   11.0700   38.5280    8.7480 O   0  0  0  0  0  0  0  0  0  0  0  0
   10.6080   40.5770    9.3000 O   0  0  0  0  0  1  0  0  0  0  0  0
   10.6050   38.5900   11.9620 N   0  0  0  0  0  0  0  0  0  0  0  0
    9.2000   38.2040   11.8050 C   0  0  0  0  0  0  0  0  0  0  0  0
    8.6810   38.2320   10.3620 C   0  0  0  0  0  0  0  0  0  0  0  0
    8.2320   39.4420    9.7750 C   0  0  0  0  0  0  0  0  0  0  0  0
    7.7560   39.4720    8.4530 C   0  0  0  0  0  0  0  0  0  0  0  0
    7.7180   38.2920    7.6930 C   0  0  0  0  0  0  0  0  0  0  0  0
    8.1570   37.0780    8.2540 C   0  0  0  0  0  0  0  0  0  0  0  0
    8.1110   35.9020    7.4760 C   0  0  0  0  0  0  0  0  0  0  0  0
    8.5440   34.6780    8.0150 C   0  0  0  0  0  0  0  0  0  0  0  0
    9.0250   34.6270    9.3360 C   0  0  0  0  0  0  0  0  0  0  0  0
    9.0730   35.7970   10.1180 C   0  0  0  0  0  0  0  0  0  0  0  0
    8.6410   37.0390    9.5900 C   0  0  0  0  0  0  0  0  0  0  0  0
   11.2880   38.4400   13.1630 C   0  0  0  0  0  0  0  0  0  0  0  0
   10.8780   37.9590   14.4230 C   0  0  0  0  0  0  0  0  0  0  0  0
   11.7950   37.9060   15.4850 C   0  0  0  0  0  0  0  0  0  0  0  0
   13.1190   38.3320   15.2840 C   0  0  0  0  0  0  0  0  0  0  0  0
   14.0100   38.2800   16.3030 F   0  0  0  0  0  0  0  0  0  0  0  0
   13.5210   38.8150   14.0230 C   0  0  0  0  0  0  0  0  0  0  0  0
   12.6170   38.8870   12.9360 C   0  0  0  0  0  0  0  0  0  0  0  0
   12.6739   42.2073    9.1513 H   0  0  0  0  0  0  0  0  0  0  0  0
   12.7356   43.1313    7.6121 H   0  0  0  0  0  0  0  0  0  0  0  0
   12.1829   41.4222    7.6121 H   0  0  0  0  0  0  0  0  0  0  0  0
   14.6508   41.9784    6.8464 H   0  0  0  0  0  0  0  0  0  0  0  0
   14.9733   42.1334    8.6050 H   0  0  0  0  0  0  0  0  0  0  0  0
   14.2531   37.3829   11.0691 H   0  0  0  0  0  0  0  0  0  0  0  0
   13.3491   37.4166    9.5172 H   0  0  0  0  0  0  0  0  0  0  0  0
   15.1232   37.1356    9.5172 H   0  0  0  0  0  0  0  0  0  0  0  0
   14.7116   40.0781   11.7653 H   0  0  0  0  0  0  0  0  0  0  0  0
   13.6748   40.9187   10.5320 H   0  0  0  0  0  0  0  0  0  0  0  0
    9.0813   37.1809   12.1912 H   0  0  0  0  0  0  0  0  0  0  0  0
    8.6110   38.9493   12.3597 H   0  0  0  0  0  0  0  0  0  0  0  0
    8.2566   40.3712   10.3631 H   0  0  0  0  0  0  0  0  0  0  0  0
    7.4131   40.4203    8.0135 H   0  0  0  0  0  0  0  0  0  0  0  0
    7.3449   38.3163    6.6585 H   0  0  0  0  0  0  0  0  0  0  0  0
    7.7347   35.9430    6.4432 H   0  0  0  0  0  0  0  0  0  0  0  0
    8.5068   33.7629    7.4057 H   0  0  0  0  0  0  0  0  0  0  0  0
    9.3646   33.6702    9.7593 H   0  0  0  0  0  0  0  0  0  0  0  0
    9.4500   35.7463   11.1501 H   0  0  0  0  0  0  0  0  0  0  0  0
    9.8407   37.6255   14.5741 H   0  0  0  0  0  0  0  0  0  0  0  0
   11.4784   37.5326   16.4701 H   0  0  0  0  0  0  0  0  0  0  0  0
   14.5610   39.1436   13.8799 H   0  0  0  0  0  0  0  0  0  0  0  0
  1  2  1  0
  2  3  1  0
  3  4  1  0
  4  5  2  0
  4  6  1  0
  6  7  1  0
  6  8  1  0
  8  9  1  0
  9 10  2  0
 10 11  1  0
 11 12  2  0
 11 13  1  0
 10 14  1  0
 14 15  1  0
 15 16  1  0
 16 17  2  0
 17 18  1  0
 18 19  2  0
 19 20  1  0
 20 21  2  0
 21 22  1  0
 22 23  2  0
 23 24  1  0
 24 25  2  0
 14 26  1  0
 26 27  2  0
 27 28  1  0
 28 29  2  0
 29 30  1  0
 29 31  1  0
 31 32  2  0
 32  9  1  0
 25 16  1  0
 32 26  1  0
 25 20  1  0
  1 33  1  0
  1 34  1  0
  1 35  1  0
  2 36  1  0
  2 37  1  0
  7 38  1  0
  7 39  1  0
  7 40  1  0
  8 41  1  0
  8 42  1  0
 15 43  1  0
 15 44  1  0
 17 45  1  0
 18 46  1  0
 19 47  1  0
 21 48  1  0
 22 49  1  0
 23 50  1  0
 24 51  1  0
 27 52  1  0
 28 53  1  0
 31 54  1  0
M  CHG  1  13  -1
M  END
>  <meeko>  (429) 
{"free_energy": -6.12, "intermolecular_energy": -8.51, "internal_energy": -0.99, "cluster_size": 292, "cluster_id": 10, "rank_in_cluster": 136}

$$$$

     RDKit          3D

 54 57  0  0  0  0  0  0  0  0999 V2000
    9.1390   38.7170   19.7740 C   0  0  0  0  0  0  0  0  0  0  0  0
    8.6100   37.3000   19.5390 C   0  0  0  0  0  0  0  0  0  0  0  0
    7.6930   37.3180   18.4570 O   0  0  0  0  0  0  0  0  0  0  0  0
    8.0850   36.9120   17.2300 C   0  0  0  0  0  0  0  0  0  0  0  0
    8.4120   37.6880   16.3310 O   0  0  0  0  0  0  0  0  0  0  0  0
    8.0680   35.5130   17.1480 N   0  0  0  0  0  0  0  0  0  0  0  0
    7.1500   34.6950   17.9480 C   0  0  0  0  0  0  0  0  0  0  0  0
    8.9980   34.7910   16.2690 C   0  0  0  0  0  0  0  0  0  0  0  0
    9.9450   35.7210   15.5490 C   0  0  0  0  0  0  0  0  0  0  0  0
   11.0850   36.3400   16.0300 C   0  0  0  0  0  0  0  0  0  0  0  0
   11.7270   36.2430   17.3780 C   0  0  0  0  0  0  0  0  0  0  0  0
   11.2180   36.8700   18.3320 O   0  0  0  0  0  0  0  0  0  0  0  0
   12.7630   35.5620   17.5420 O   0  0  0  0  0  1  0  0  0  0  0  0
   11.6130   37.1700   15.0180 N   0  0  0  0  0  0  0  0  0  0  0  0
   12.8130   38.0110   15.0630 C   0  0  0  0  0  0  0  0  0  0  0  0
   12.8610   39.0030   16.2330 C   0  0  0  0  0  0  0  0  0  0  0  0
   13.9490   39.0000   17.1420 C   0  0  0  0  0  0  0  0  0  0  0  0
   13.9980   39.9070   18.2150 C   0  0  0  0  0  0  0  0  0  0  0  0
   12.9580   40.8320   18.4000 C   0  0  0  0  0  0  0  0  0  0  0  0
   11.8670   40.8540   17.5110 C   0  0  0  0  0  0  0  0  0  0  0  0
   10.8310   41.7900   17.7130 C   0  0  0  0  0  0  0  0  0  0  0  0
    9.7310   41.8300   16.8380 C   0  0  0  0  0  0  0  0  0  0  0  0
    9.6640   40.9310   15.7580 C   0  0  0  0  0  0  0  0  0  0  0  0
   10.6940   39.9940   15.5520 C   0  0  0  0  0  0  0  0  0  0  0  0
   11.8100   39.9400   16.4230 C   0  0  0  0  0  0  0  0  0  0  0  0
   10.8090   37.0830   13.8880 C   0  0  0  0  0  0  0  0  0  0  0  0
   10.8860   37.7120   12.6290 C   0  0  0  0  0  0  0  0  0  0  0  0
    9.9250   37.4300   11.6440 C   0  0  0  0  0  0  0  0  0  0  0  0
    8.8920   36.5180   11.9210 C   0  0  0  0  0  0  0  0  0  0  0  0
    7.9640   36.2380   10.9750 F   0  0  0  0  0  0  0  0  0  0  0  0
    8.8190   35.8960   13.1820 C   0  0  0  0  0  0  0  0  0  0  0  0
    9.7690   36.1660   14.1970 C   0  0  0  0  0  0  0  0  0  0  0  0
    9.2100   38.9073   20.8551 H   0  0  0  0  0  0  0  0  0  0  0  0
   10.1350   38.8169   19.3179 H   0  0  0  0  0  0  0  0  0  0  0  0
    8.4521   39.4451   19.3179 H   0  0  0  0  0  0  0  0  0  0  0  0
    9.4484   36.6293   19.2996 H   0  0  0  0  0  0  0  0  0  0  0  0
    8.1038   36.9393   20.4465 H   0  0  0  0  0  0  0  0  0  0  0  0
    7.3428   34.8668   19.0173 H   0  0  0  0  0  0  0  0  0  0  0  0
    6.1119   34.9730   17.7133 H   0  0  0  0  0  0  0  0  0  0  0  0
    7.3069   33.6318   17.7133 H   0  0  0  0  0  0  0  0  0  0  0  0
    9.5865   34.0885   16.8774 H   0  0  0  0  0  0  0  0  0  0  0  0
    8.4022   34.2634   15.5096 H   0  0  0  0  0  0  0  0  0  0  0  0
   13.6903   37.3516   15.1374 H   0  0  0  0  0  0  0  0  0  0  0  0
   12.8012   38.6162   14.1446 H   0  0  0  0  0  0  0  0  0  0  0  0
   14.7670   38.2773   17.0057 H   0  0  0  0  0  0  0  0  0  0  0  0
   14.8509   39.8920   18.9095 H   0  0  0  0  0  0  0  0  0  0  0  0
   12.9959   41.5403   19.2407 H   0  0  0  0  0  0  0  0  0  0  0  0
   10.8839   42.4915   18.5586 H   0  0  0  0  0  0  0  0  0  0  0  0
    8.9255   42.5619   16.9975 H   0  0  0  0  0  0  0  0  0  0  0  0
    8.8042   40.9604   15.0725 H   0  0  0  0  0  0  0  0  0  0  0  0
   10.6317   39.2954   14.7046 H   0  0  0  0  0  0  0  0  0  0  0  0
   11.6981   38.4233   12.4179 H   0  0  0  0  0  0  0  0  0  0  0  0
    9.9806   37.9204   10.6609 H   0  0  0  0  0  0  0  0  0  0  0  0
    8.0052   35.1838   13.3835 H   0  0  0  0  0  0  0  0  0  0  0  0
  1  2  1  0
  2  3  1  0
  3  4  1  0
  4  5  2  0
  4  6  1  0
  6  7  1  0
  6  8  1  0
  8  9  1  0
  9 10  2  0
 10 11  1  0
 11 12  2  0
 11 13  1  0
 10 14  1  0
 14 15  1  0
 15 16  1  0
 16 17  2  0
 17 18  1  0
 18 19  2  0
 19 20  1  0
 20 21  2  0
 21 22  1  0
 22 23  2  0
 23 24  1  0
 24 25  2  0
 14 26  1  0
 26 27  2  0
 27 28  1  0
 28 29  2  0
 29 30  1  0
 29 31  1  0
 31 32  2  0
 32  9  1  0
 25 16  1  0
 32 26  1  0
 25 20  1  0
  1 33  1  0
  1 34  1  0
  1 35  1  0
  2 36  1  0
  2 37  1  0
  7 38  1  0
  7 39  1  0
  7 40  1  0
  8 41  1  0
  8 42  1  0
 15 43  1  0
 15 44  1  0
 17 45  1  0
 18 46  1  0
 19 47  1  0
 21 48  1  0
 22 49  1  0
 23 50  1  0
 24 51  1  0
 27 52  1  0
 28 53  1  0
 31 54  1  0
M  CHG  1  13  -1
M  END
>  <meeko>  (430) 
{"free_energy": -2.94, "intermolecular_energy": -5.33, "internal_energy": -2.73, "cluster_size": 2, "cluster_id": 233, "rank_in_cluster": 2}

$$$$

     RDKit          3D

 54 57  0  0  0  0  0  0  0  0999 V2000
    5.4970   46.5470   14.0850 C   0  0  0  0  0  0  0  0  0  0  0  0
    6.6740   45.5830   13.9150 C   0  0  0  0  0  0  0  0  0  0  0  0
    7.2380   45.7570   12.6250 O   0  0  0  0  0  0  0  0  0  0  0  0
    8.5630   45.9800   12.4910 C   0  0  0  0  0  0  0  0  0  0  0  0
    9.0400   47.0810   12.2120 O   0  0  0  0  0  0  0  0  0  0  0  0
    9.2850   44.8010   12.7190 N   0  0  0  0  0  0  0  0  0  0  0  0
   10.7170   44.8120   13.0360 C   0  0  0  0  0  0  0  0  0  0  0  0
    8.6420   43.4830   12.6220 C   0  0  0  0  0  0  0  0  0  0  0  0
    9.6220   42.3520   12.8290 C   0  0  0  0  0  0  0  0  0  0  0  0
    9.8730   41.6230   13.9780 C   0  0  0  0  0  0  0  0  0  0  0  0
    9.2300   41.7150   15.3260 C   0  0  0  0  0  0  0  0  0  0  0  0
    9.7770   41.1420   16.2920 O   0  0  0  0  0  0  0  0  0  0  0  0
    8.1570   42.3390   15.4780 O   0  0  0  0  0  1  0  0  0  0  0  0
   10.9170   40.7100   13.7180 N   0  0  0  0  0  0  0  0  0  0  0  0
   11.5150   39.7270   14.6260 C   0  0  0  0  0  0  0  0  0  0  0  0
   10.6080   38.5420   14.9820 C   0  0  0  0  0  0  0  0  0  0  0  0
   10.3270   38.2230   16.3340 C   0  0  0  0  0  0  0  0  0  0  0  0
    9.4960   37.1390   16.6640 C   0  0  0  0  0  0  0  0  0  0  0  0
    8.9320   36.3510   15.6480 C   0  0  0  0  0  0  0  0  0  0  0  0
    9.1970   36.6470   14.2980 C   0  0  0  0  0  0  0  0  0  0  0  0
    8.6220   35.8450   13.2900 C   0  0  0  0  0  0  0  0  0  0  0  0
    8.8730   36.1210   11.9340 C   0  0  0  0  0  0  0  0  0  0  0  0
    9.7000   37.2030   11.5830 C   0  0  0  0  0  0  0  0  0  0  0  0
   10.2780   38.0070   12.5840 C   0  0  0  0  0  0  0  0  0  0  0  0
   10.0360   37.7430   13.9550 C   0  0  0  0  0  0  0  0  0  0  0  0
   11.3350   40.8560   12.4010 C   0  0  0  0  0  0  0  0  0  0  0  0
   12.3410   40.2060   11.6570 C   0  0  0  0  0  0  0  0  0  0  0  0
   12.5500   40.5510   10.3110 C   0  0  0  0  0  0  0  0  0  0  0  0
   11.7530   41.5420    9.7140 C   0  0  0  0  0  0  0  0  0  0  0  0
   11.9460   41.8760    8.4160 F   0  0  0  0  0  0  0  0  0  0  0  0
   10.7520   42.1890   10.4650 C   0  0  0  0  0  0  0  0  0  0  0  0
   10.5230   41.8690   11.8240 C   0  0  0  0  0  0  0  0  0  0  0  0
    5.3042   46.7049   15.1564 H   0  0  0  0  0  0  0  0  0  0  0  0
    5.7396   47.5092   13.6104 H   0  0  0  0  0  0  0  0  0  0  0  0
    4.6014   46.1195   13.6104 H   0  0  0  0  0  0  0  0  0  0  0  0
    7.4353   45.7935   14.6806 H   0  0  0  0  0  0  0  0  0  0  0  0
    6.3218   44.5470   14.0273 H   0  0  0  0  0  0  0  0  0  0  0  0
   10.8508   44.8130   14.1278 H   0  0  0  0  0  0  0  0  0  0  0  0
   11.1940   43.9175   12.6090 H   0  0  0  0  0  0  0  0  0  0  0  0
   11.1802   45.7137   12.6090 H   0  0  0  0  0  0  0  0  0  0  0  0
    7.8561   43.4152   13.3886 H   0  0  0  0  0  0  0  0  0  0  0  0
    8.2237   43.3856   11.6093 H   0  0  0  0  0  0  0  0  0  0  0  0
   12.4241   39.3307   14.1501 H   0  0  0  0  0  0  0  0  0  0  0  0
   11.7135   40.2580   15.5686 H   0  0  0  0  0  0  0  0  0  0  0  0
   10.7660   38.8332   17.1371 H   0  0  0  0  0  0  0  0  0  0  0  0
    9.2872   36.9077   17.7189 H   0  0  0  0  0  0  0  0  0  0  0  0
    8.2827   35.5018   15.9074 H   0  0  0  0  0  0  0  0  0  0  0  0
    7.9743   34.9998   13.5659 H   0  0  0  0  0  0  0  0  0  0  0  0
    8.4240   35.4927   11.1506 H   0  0  0  0  0  0  0  0  0  0  0  0
    9.8959   37.4219   10.5230 H   0  0  0  0  0  0  0  0  0  0  0  0
   10.9248   38.8497   12.2985 H   0  0  0  0  0  0  0  0  0  0  0  0
   12.9612   39.4301   12.1295 H   0  0  0  0  0  0  0  0  0  0  0  0
   13.3344   40.0472    9.7271 H   0  0  0  0  0  0  0  0  0  0  0  0
   10.1339   42.9611    9.9835 H   0  0  0  0  0  0  0  0  0  0  0  0
  1  2  1  0
  2  3  1  0
  3  4  1  0
  4  5  2  0
  4  6  1  0
  6  7  1  0
  6  8  1  0
  8  9  1  0
  9 10  2  0
 10 11  1  0
 11 12  2  0
 11 13  1  0
 10 14  1  0
 14 15  1  0
 15 16  1  0
 16 17  2  0
 17 18  1  0
 18 19  2  0
 19 20  1  0
 20 21  2  0
 21 22  1  0
 22 23  2  0
 23 24  1  0
 24 25  2  0
 14 26  1  0
 26 27  2  0
 27 28  1  0
 28 29  2  0
 29 30  1  0
 29 31  1  0
 31 32  2  0
 32  9  1  0
 25 16  1  0
 32 26  1  0
 25 20  1  0
  1 33  1  0
  1 34  1  0
  1 35  1  0
  2 36  1  0
  2 37  1  0
  7 38  1  0
  7 39  1  0
  7 40  1  0
  8 41  1  0
  8 42  1  0
 15 43  1  0
 15 44  1  0
 17 45  1  0
 18 46  1  0
 19 47  1  0
 21 48  1  0
 22 49  1  0
 23 50  1  0
 24 51  1  0
 27 52  1  0
 28 53  1  0
 31 54  1  0
M  CHG  1  13  -1
M  END
>  <meeko>  (431) 
{"free_energy": -4.28, "intermolecular_energy": -6.67, "internal_energy": -1.73, "cluster_size": 12, "cluster_id": 105, "rank_in_cluster": 10}

$$$$

     RDKit          3D

 54 57  0  0  0  0  0  0  0  0999 V2000
   18.5300   40.0240    4.2700 C   0  0  0  0  0  0  0  0  0  0  0  0
   17.5120   40.0560    3.1270 C   0  0  0  0  0  0  0  0  0  0  0  0
   16.7660   41.2600    3.2000 O   0  0  0  0  0  0  0  0  0  0  0  0
   16.0980   41.5750    4.3310 C   0  0  0  0  0  0  0  0  0  0  0  0
   15.7730   40.7420    5.1800 O   0  0  0  0  0  0  0  0  0  0  0  0
   15.8480   42.9520    4.3880 N   0  0  0  0  0  0  0  0  0  0  0  0
   16.7400   43.9330    3.7610 C   0  0  0  0  0  0  0  0  0  0  0  0
   14.6840   43.4860    5.1080 C   0  0  0  0  0  0  0  0  0  0  0  0
   14.7500   43.2020    6.5910 C   0  0  0  0  0  0  0  0  0  0  0  0
   13.7260   43.2120    7.5210 C   0  0  0  0  0  0  0  0  0  0  0  0
   12.2640   43.4690    7.3280 C   0  0  0  0  0  0  0  0  0  0  0  0
   11.4520   42.5660    7.6230 O   0  0  0  0  0  0  0  0  0  0  0  0
   11.8660   44.5590    6.8630 O   0  0  0  0  0  1  0  0  0  0  0  0
   14.2690   42.9500    8.7970 N   0  0  0  0  0  0  0  0  0  0  0  0
   13.5690   42.8520   10.0820 C   0  0  0  0  0  0  0  0  0  0  0  0
   12.6280   41.6470   10.2130 C   0  0  0  0  0  0  0  0  0  0  0  0
   11.2320   41.8310   10.3740 C   0  0  0  0  0  0  0  0  0  0  0  0
   10.3660   40.7300   10.4950 C   0  0  0  0  0  0  0  0  0  0  0  0
   10.8810   39.4250   10.4590 C   0  0  0  0  0  0  0  0  0  0  0  0
   12.2640   39.2160   10.3020 C   0  0  0  0  0  0  0  0  0  0  0  0
   12.7640   37.8970   10.2680 C   0  0  0  0  0  0  0  0  0  0  0  0
   14.1420   37.6650   10.1120 C   0  0  0  0  0  0  0  0  0  0  0  0
   15.0240   38.7530    9.9890 C   0  0  0  0  0  0  0  0  0  0  0  0
   14.5320   40.0720   10.0220 C   0  0  0  0  0  0  0  0  0  0  0  0
   13.1470   40.3240   10.1780 C   0  0  0  0  0  0  0  0  0  0  0  0
   15.6410   42.7730    8.6830 C   0  0  0  0  0  0  0  0  0  0  0  0
   16.6380   42.5060    9.6450 C   0  0  0  0  0  0  0  0  0  0  0  0
   17.9770   42.3620    9.2450 C   0  0  0  0  0  0  0  0  0  0  0  0
   18.3150   42.4830    7.8860 C   0  0  0  0  0  0  0  0  0  0  0  0
   19.6030   42.3410    7.4940 F   0  0  0  0  0  0  0  0  0  0  0  0
   17.3150   42.7530    6.9320 C   0  0  0  0  0  0  0  0  0  0  0  0
   15.9580   42.9100    7.3050 C   0  0  0  0  0  0  0  0  0  0  0  0
   17.9999   40.0407    5.2337 H   0  0  0  0  0  0  0  0  0  0  0  0
   19.1325   39.1065    4.1988 H   0  0  0  0  0  0  0  0  0  0  0  0
   19.1890   40.9019    4.1988 H   0  0  0  0  0  0  0  0  0  0  0  0
   18.0397   40.0081    2.1630 H   0  0  0  0  0  0  0  0  0  0  0  0
   16.8329   39.1949    3.2129 H   0  0  0  0  0  0  0  0  0  0  0  0
   17.2613   44.5063    4.5418 H   0  0  0  0  0  0  0  0  0  0  0  0
   17.4784   43.4100    3.1355 H   0  0  0  0  0  0  0  0  0  0  0  0
   16.1494   44.6185    3.1355 H   0  0  0  0  0  0  0  0  0  0  0  0
   14.6433   44.5749    4.9574 H   0  0  0  0  0  0  0  0  0  0  0  0
   13.7852   42.9927    4.7095 H   0  0  0  0  0  0  0  0  0  0  0  0
   14.3244   42.7842   10.8787 H   0  0  0  0  0  0  0  0  0  0  0  0
   12.9360   43.7484   10.1585 H   0  0  0  0  0  0  0  0  0  0  0  0
   10.8199   42.8504   10.4048 H   0  0  0  0  0  0  0  0  0  0  0  0
    9.2849   40.8915   10.6179 H   0  0  0  0  0  0  0  0  0  0  0  0
   10.2028   38.5642   10.5536 H   0  0  0  0  0  0  0  0  0  0  0  0
   12.0729   37.0466   10.3639 H   0  0  0  0  0  0  0  0  0  0  0  0
   14.5288   36.6356   10.0863 H   0  0  0  0  0  0  0  0  0  0  0  0
   16.1023   38.5732    9.8665 H   0  0  0  0  0  0  0  0  0  0  0  0
   15.2310   40.9159    9.9256 H   0  0  0  0  0  0  0  0  0  0  0  0
   16.3672   42.4107   10.7069 H   0  0  0  0  0  0  0  0  0  0  0  0
   18.7575   42.1555    9.9921 H   0  0  0  0  0  0  0  0  0  0  0  0
   17.5946   42.8441    5.8720 H   0  0  0  0  0  0  0  0  0  0  0  0
  1  2  1  0
  2  3  1  0
  3  4  1  0
  4  5  2  0
  4  6  1  0
  6  7  1  0
  6  8  1  0
  8  9  1  0
  9 10  2  0
 10 11  1  0
 11 12  2  0
 11 13  1  0
 10 14  1  0
 14 15  1  0
 15 16  1  0
 16 17  2  0
 17 18  1  0
 18 19  2  0
 19 20  1  0
 20 21  2  0
 21 22  1  0
 22 23  2  0
 23 24  1  0
 24 25  2  0
 14 26  1  0
 26 27  2  0
 27 28  1  0
 28 29  2  0
 29 30  1  0
 29 31  1  0
 31 32  2  0
 32  9  1  0
 25 16  1  0
 32 26  1  0
 25 20  1  0
  1 33  1  0
  1 34  1  0
  1 35  1  0
  2 36  1  0
  2 37  1  0
  7 38  1  0
  7 39  1  0
  7 40  1  0
  8 41  1  0
  8 42  1  0
 15 43  1  0
 15 44  1  0
 17 45  1  0
 18 46  1  0
 19 47  1  0
 21 48  1  0
 22 49  1  0
 23 50  1  0
 24 51  1  0
 27 52  1  0
 28 53  1  0
 31 54  1  0
M  CHG  1  13  -1
M  END
>  <meeko>  (432) 
{"free_energy": -4.03, "intermolecular_energy": -6.42, "internal_energy": -2.01, "cluster_size": 16, "cluster_id": 53, "rank_in_cluster": 16}

$$$$

     RDKit          3D

 54 57  0  0  0  0  0  0  0  0999 V2000
   13.6460   35.0440   17.0540 C   0  0  0  0  0  0  0  0  0  0  0  0
   12.3300   34.8100   16.3080 C   0  0  0  0  0  0  0  0  0  0  0  0
   11.5230   35.9720   16.4100 O   0  0  0  0  0  0  0  0  0  0  0  0
   11.2820   36.7270   15.3170 C   0  0  0  0  0  0  0  0  0  0  0  0
   12.1640   37.3250   14.6990 O   0  0  0  0  0  0  0  0  0  0  0  0
    9.9160   36.7160   15.0040 N   0  0  0  0  0  0  0  0  0  0  0  0
    9.1300   35.4780   14.9840 C   0  0  0  0  0  0  0  0  0  0  0  0
    9.2070   37.9520   14.6480 C   0  0  0  0  0  0  0  0  0  0  0  0
    9.6360   38.4920   13.3040 C   0  0  0  0  0  0  0  0  0  0  0  0
   10.2640   39.6900   13.0110 C   0  0  0  0  0  0  0  0  0  0  0  0
   10.7270   40.7740   13.9320 C   0  0  0  0  0  0  0  0  0  0  0  0
    9.8790   41.3790   14.6220 O   0  0  0  0  0  0  0  0  0  0  0  0
   11.9380   41.0810   13.9960 O   0  0  0  0  0  1  0  0  0  0  0  0
   10.4120   39.7950   11.6110 N   0  0  0  0  0  0  0  0  0  0  0  0
   11.0260   40.8800   10.8400 C   0  0  0  0  0  0  0  0  0  0  0  0
   12.2160   40.4570    9.9680 C   0  0  0  0  0  0  0  0  0  0  0  0
   12.9990   39.3260   10.3080 C   0  0  0  0  0  0  0  0  0  0  0  0
   14.0900   38.9360    9.5120 C   0  0  0  0  0  0  0  0  0  0  0  0
   14.4190   39.6710    8.3610 C   0  0  0  0  0  0  0  0  0  0  0  0
   13.6570   40.8000    8.0040 C   0  0  0  0  0  0  0  0  0  0  0  0
   14.0020   41.5260    6.8460 C   0  0  0  0  0  0  0  0  0  0  0  0
   13.2550   42.6570    6.4700 C   0  0  0  0  0  0  0  0  0  0  0  0
   12.1600   43.0630    7.2520 C   0  0  0  0  0  0  0  0  0  0  0  0
   11.8100   42.3420    8.4100 C   0  0  0  0  0  0  0  0  0  0  0  0
   12.5520   41.2010    8.8030 C   0  0  0  0  0  0  0  0  0  0  0  0
    9.8780   38.6640   11.0080 C   0  0  0  0  0  0  0  0  0  0  0  0
    9.7630   38.2870    9.6540 C   0  0  0  0  0  0  0  0  0  0  0  0
    9.1750   37.0560    9.3170 C   0  0  0  0  0  0  0  0  0  0  0  0
    8.7070   36.2060   10.3350 C   0  0  0  0  0  0  0  0  0  0  0  0
    8.1430   35.0170   10.0170 F   0  0  0  0  0  0  0  0  0  0  0  0
    8.8230   36.5910   11.6840 C   0  0  0  0  0  0  0  0  0  0  0  0
    9.4040   37.8280   12.0540 C   0  0  0  0  0  0  0  0  0  0  0  0
   13.4636   35.0116   18.1383 H   0  0  0  0  0  0  0  0  0  0  0  0
   14.3673   34.2600   16.7799 H   0  0  0  0  0  0  0  0  0  0  0  0
   14.0528   36.0286   16.7799 H   0  0  0  0  0  0  0  0  0  0  0  0
   12.5399   34.5996   15.2489 H   0  0  0  0  0  0  0  0  0  0  0  0
   11.8015   33.9530   16.7509 H   0  0  0  0  0  0  0  0  0  0  0  0
    8.9259   35.1565   16.0160 H   0  0  0  0  0  0  0  0  0  0  0  0
    8.1790   35.6558   14.4605 H   0  0  0  0  0  0  0  0  0  0  0  0
    9.6955   34.6930   14.4605 H   0  0  0  0  0  0  0  0  0  0  0  0
    8.1272   37.7442   14.6175 H   0  0  0  0  0  0  0  0  0  0  0  0
    9.4489   38.7096   15.4079 H   0  0  0  0  0  0  0  0  0  0  0  0
   10.2563   41.3107   10.1827 H   0  0  0  0  0  0  0  0  0  0  0  0
   11.4204   41.5972   11.5749 H   0  0  0  0  0  0  0  0  0  0  0  0
   12.7495   38.7447   11.2079 H   0  0  0  0  0  0  0  0  0  0  0  0
   14.6865   38.0547    9.7906 H   0  0  0  0  0  0  0  0  0  0  0  0
   15.2723   39.3644    7.7383 H   0  0  0  0  0  0  0  0  0  0  0  0
   14.8586   41.2069    6.2341 H   0  0  0  0  0  0  0  0  0  0  0  0
   13.5271   43.2222    5.5664 H   0  0  0  0  0  0  0  0  0  0  0  0
   11.5745   43.9468    6.9586 H   0  0  0  0  0  0  0  0  0  0  0  0
   10.9516   42.6682    9.0156 H   0  0  0  0  0  0  0  0  0  0  0  0
   10.1330   38.9556    8.8628 H   0  0  0  0  0  0  0  0  0  0  0  0
    9.0812   36.7587    8.2621 H   0  0  0  0  0  0  0  0  0  0  0  0
    8.4536   35.9149   12.4691 H   0  0  0  0  0  0  0  0  0  0  0  0
  1  2  1  0
  2  3  1  0
  3  4  1  0
  4  5  2  0
  4  6  1  0
  6  7  1  0
  6  8  1  0
  8  9  1  0
  9 10  2  0
 10 11  1  0
 11 12  2  0
 11 13  1  0
 10 14  1  0
 14 15  1  0
 15 16  1  0
 16 17  2  0
 17 18  1  0
 18 19  2  0
 19 20  1  0
 20 21  2  0
 21 22  1  0
 22 23  2  0
 23 24  1  0
 24 25  2  0
 14 26  1  0
 26 27  2  0
 27 28  1  0
 28 29  2  0
 29 30  1  0
 29 31  1  0
 31 32  2  0
 32  9  1  0
 25 16  1  0
 32 26  1  0
 25 20  1  0
  1 33  1  0
  1 34  1  0
  1 35  1  0
  2 36  1  0
  2 37  1  0
  7 38  1  0
  7 39  1  0
  7 40  1  0
  8 41  1  0
  8 42  1  0
 15 43  1  0
 15 44  1  0
 17 45  1  0
 18 46  1  0
 19 47  1  0
 21 48  1  0
 22 49  1  0
 23 50  1  0
 24 51  1  0
 27 52  1  0
 28 53  1  0
 31 54  1  0
M  CHG  1  13  -1
M  END
>  <meeko>  (433) 
{"free_energy": -5.03, "intermolecular_energy": -7.42, "internal_energy": -1.77, "cluster_size": 251, "cluster_id": 26, "rank_in_cluster": 216}

$$$$

     RDKit          3D

 54 57  0  0  0  0  0  0  0  0999 V2000
   15.8120   39.2600   12.2650 C   0  0  0  0  0  0  0  0  0  0  0  0
   14.3580   39.1830   11.7930 C   0  0  0  0  0  0  0  0  0  0  0  0
   14.1090   37.8960   11.2520 O   0  0  0  0  0  0  0  0  0  0  0  0
   13.0500   37.6970   10.4390 C   0  0  0  0  0  0  0  0  0  0  0  0
   12.5530   36.5890   10.2320 O   0  0  0  0  0  0  0  0  0  0  0  0
   12.6160   38.9110    9.8910 N   0  0  0  0  0  0  0  0  0  0  0  0
   13.3240   39.5650    8.7840 C   0  0  0  0  0  0  0  0  0  0  0  0
   11.4380   39.6090   10.4220 C   0  0  0  0  0  0  0  0  0  0  0  0
   10.5420   38.6920   11.2220 C   0  0  0  0  0  0  0  0  0  0  0  0
   10.3340   38.6600   12.5890 C   0  0  0  0  0  0  0  0  0  0  0  0
   10.9010   39.5370   13.6610 C   0  0  0  0  0  0  0  0  0  0  0  0
   12.0920   39.9060   13.5680 O   0  0  0  0  0  0  0  0  0  0  0  0
   10.2030   39.8770   14.6410 O   0  0  0  0  0  1  0  0  0  0  0  0
    9.4620   37.5930   12.8910 N   0  0  0  0  0  0  0  0  0  0  0  0
    8.9500   37.1780   14.2000 C   0  0  0  0  0  0  0  0  0  0  0  0
    9.5570   35.8800   14.7490 C   0  0  0  0  0  0  0  0  0  0  0  0
    8.8730   34.6460   14.6150 C   0  0  0  0  0  0  0  0  0  0  0  0
    9.4250   33.4540   15.1160 C   0  0  0  0  0  0  0  0  0  0  0  0
   10.6720   33.4750   15.7610 C   0  0  0  0  0  0  0  0  0  0  0  0
   11.3700   34.6880   15.9070 C   0  0  0  0  0  0  0  0  0  0  0  0
   12.6210   34.6900   16.5580 C   0  0  0  0  0  0  0  0  0  0  0  0
   13.3360   35.8910   16.7160 C   0  0  0  0  0  0  0  0  0  0  0  0
   12.8010   37.0930   16.2210 C   0  0  0  0  0  0  0  0  0  0  0  0
   11.5520   37.0980   15.5710 C   0  0  0  0  0  0  0  0  0  0  0  0
   10.8190   35.8980   15.4030 C   0  0  0  0  0  0  0  0  0  0  0  0
    9.1120   36.9410   11.7160 C   0  0  0  0  0  0  0  0  0  0  0  0
    8.2900   35.8220   11.4710 C   0  0  0  0  0  0  0  0  0  0  0  0
    8.0970   35.3680   10.1550 C   0  0  0  0  0  0  0  0  0  0  0  0
    8.7250   36.0360    9.0900 C   0  0  0  0  0  0  0  0  0  0  0  0
    8.5400   35.6070    7.8190 F   0  0  0  0  0  0  0  0  0  0  0  0
    9.5470   37.1510    9.3420 C   0  0  0  0  0  0  0  0  0  0  0  0
    9.7660   37.6270   10.6580 C   0  0  0  0  0  0  0  0  0  0  0  0
   15.8409   39.2615   13.3646 H   0  0  0  0  0  0  0  0  0  0  0  0
   16.3675   38.3900   11.8848 H   0  0  0  0  0  0  0  0  0  0  0  0
   16.2725   40.1838   11.8848 H   0  0  0  0  0  0  0  0  0  0  0  0
   13.6851   39.3600   12.6450 H   0  0  0  0  0  0  0  0  0  0  0  0
   14.1794   39.9477   11.0227 H   0  0  0  0  0  0  0  0  0  0  0  0
   14.0754   40.2591    9.1885 H   0  0  0  0  0  0  0  0  0  0  0  0
   13.8230   38.8033    8.1670 H   0  0  0  0  0  0  0  0  0  0  0  0
   12.6042   40.1228    8.1670 H   0  0  0  0  0  0  0  0  0  0  0  0
   11.7759   40.4295   11.0721 H   0  0  0  0  0  0  0  0  0  0  0  0
   10.8569   39.9873    9.5680 H   0  0  0  0  0  0  0  0  0  0  0  0
    9.1582   37.9836   14.9194 H   0  0  0  0  0  0  0  0  0  0  0  0
    7.8761   36.9829   14.0636 H   0  0  0  0  0  0  0  0  0  0  0  0
    7.8954   34.6205   14.1114 H   0  0  0  0  0  0  0  0  0  0  0  0
    8.8801   32.5052   15.0027 H   0  0  0  0  0  0  0  0  0  0  0  0
   11.1037   32.5421   16.1526 H   0  0  0  0  0  0  0  0  0  0  0  0
   13.0393   33.7486   16.9438 H   0  0  0  0  0  0  0  0  0  0  0  0
   14.3109   35.8896   17.2254 H   0  0  0  0  0  0  0  0  0  0  0  0
   13.3599   38.0327   16.3418 H   0  0  0  0  0  0  0  0  0  0  0  0
   11.1411   38.0444   15.1895 H   0  0  0  0  0  0  0  0  0  0  0  0
    7.8002   35.3047   12.3092 H   0  0  0  0  0  0  0  0  0  0  0  0
    7.4577   34.4944    9.9597 H   0  0  0  0  0  0  0  0  0  0  0  0
   10.0302   37.6642    8.4975 H   0  0  0  0  0  0  0  0  0  0  0  0
  1  2  1  0
  2  3  1  0
  3  4  1  0
  4  5  2  0
  4  6  1  0
  6  7  1  0
  6  8  1  0
  8  9  1  0
  9 10  2  0
 10 11  1  0
 11 12  2  0
 11 13  1  0
 10 14  1  0
 14 15  1  0
 15 16  1  0
 16 17  2  0
 17 18  1  0
 18 19  2  0
 19 20  1  0
 20 21  2  0
 21 22  1  0
 22 23  2  0
 23 24  1  0
 24 25  2  0
 14 26  1  0
 26 27  2  0
 27 28  1  0
 28 29  2  0
 29 30  1  0
 29 31  1  0
 31 32  2  0
 32  9  1  0
 25 16  1  0
 32 26  1  0
 25 20  1  0
  1 33  1  0
  1 34  1  0
  1 35  1  0
  2 36  1  0
  2 37  1  0
  7 38  1  0
  7 39  1  0
  7 40  1  0
  8 41  1  0
  8 42  1  0
 15 43  1  0
 15 44  1  0
 17 45  1  0
 18 46  1  0
 19 47  1  0
 21 48  1  0
 22 49  1  0
 23 50  1  0
 24 51  1  0
 27 52  1  0
 28 53  1  0
 31 54  1  0
M  CHG  1  13  -1
M  END
>  <meeko>  (434) 
{"free_energy": -6.09, "intermolecular_energy": -8.48, "internal_energy": -2.3, "cluster_size": 191, "cluster_id": 13, "rank_in_cluster": 42}

$$$$

     RDKit          3D

 54 57  0  0  0  0  0  0  0  0999 V2000
   12.7640   36.2270   21.6130 C   0  0  0  0  0  0  0  0  0  0  0  0
   14.1750   35.8320   21.1700 C   0  0  0  0  0  0  0  0  0  0  0  0
   14.1480   35.4570   19.8020 O   0  0  0  0  0  0  0  0  0  0  0  0
   14.4980   36.3480   18.8490 C   0  0  0  0  0  0  0  0  0  0  0  0
   14.5480   37.5630   19.0440 O   0  0  0  0  0  0  0  0  0  0  0  0
   14.7900   35.6920   17.6470 N   0  0  0  0  0  0  0  0  0  0  0  0
   16.0890   35.8300   16.9780 C   0  0  0  0  0  0  0  0  0  0  0  0
   13.7920   34.8490   16.9760 C   0  0  0  0  0  0  0  0  0  0  0  0
   12.5900   35.6410   16.5170 C   0  0  0  0  0  0  0  0  0  0  0  0
   11.3050   35.1960   16.2610 C   0  0  0  0  0  0  0  0  0  0  0  0
   10.7260   33.8230   16.3970 C   0  0  0  0  0  0  0  0  0  0  0  0
   11.1250   32.9240   15.6260 O   0  0  0  0  0  0  0  0  0  0  0  0
    9.8460   33.5850   17.2530 O   0  0  0  0  0  1  0  0  0  0  0  0
   10.5340   36.2810   15.7920 N   0  0  0  0  0  0  0  0  0  0  0  0
    9.1200   36.2920   15.4050 C   0  0  0  0  0  0  0  0  0  0  0  0
    8.1340   36.0480   16.5550 C   0  0  0  0  0  0  0  0  0  0  0  0
    7.2940   34.9070   16.5610 C   0  0  0  0  0  0  0  0  0  0  0  0
    6.3900   34.6790   17.6130 C   0  0  0  0  0  0  0  0  0  0  0  0
    6.3070   35.5910   18.6780 C   0  0  0  0  0  0  0  0  0  0  0  0
    7.1300   36.7330   18.6940 C   0  0  0  0  0  0  0  0  0  0  0  0
    7.0330   37.6380   19.7710 C   0  0  0  0  0  0  0  0  0  0  0  0
    7.8440   38.7860   19.8070 C   0  0  0  0  0  0  0  0  0  0  0  0
    8.7560   39.0310   18.7650 C   0  0  0  0  0  0  0  0  0  0  0  0
    8.8570   38.1320   17.6870 C   0  0  0  0  0  0  0  0  0  0  0  0
    8.0480   36.9700   17.6340 C   0  0  0  0  0  0  0  0  0  0  0  0
   11.3260   37.4200   15.7460 C   0  0  0  0  0  0  0  0  0  0  0  0
   11.0480   38.7430   15.3440 C   0  0  0  0  0  0  0  0  0  0  0  0
   12.0540   39.7210   15.4100 C   0  0  0  0  0  0  0  0  0  0  0  0
   13.3330   39.3750   15.8790 C   0  0  0  0  0  0  0  0  0  0  0  0
   14.3060   40.3140   15.9480 F   0  0  0  0  0  0  0  0  0  0  0  0
   13.6040   38.0510   16.2750 C   0  0  0  0  0  0  0  0  0  0  0  0
   12.6130   37.0420   16.2140 C   0  0  0  0  0  0  0  0  0  0  0  0
   12.7150   36.2407   22.7118 H   0  0  0  0  0  0  0  0  0  0  0  0
   12.5236   37.2270   21.2228 H   0  0  0  0  0  0  0  0  0  0  0  0
   12.0394   35.4972   21.2228 H   0  0  0  0  0  0  0  0  0  0  0  0
   14.8550   36.6863   21.3037 H   0  0  0  0  0  0  0  0  0  0  0  0
   14.5293   34.9862   21.7775 H   0  0  0  0  0  0  0  0  0  0  0  0
   16.8836   35.9144   17.7339 H   0  0  0  0  0  0  0  0  0  0  0  0
   16.2734   34.9464   16.3493 H   0  0  0  0  0  0  0  0  0  0  0  0
   16.0836   36.7326   16.3493 H   0  0  0  0  0  0  0  0  0  0  0  0
   14.2597   34.3758   16.1000 H   0  0  0  0  0  0  0  0  0  0  0  0
   13.4441   34.0973   17.6998 H   0  0  0  0  0  0  0  0  0  0  0  0
    8.8941   37.2739   14.9636 H   0  0  0  0  0  0  0  0  0  0  0  0
    8.9861   35.4573   14.7012 H   0  0  0  0  0  0  0  0  0  0  0  0
    7.3501   34.1887   15.7298 H   0  0  0  0  0  0  0  0  0  0  0  0
    5.7475   33.7862   17.6022 H   0  0  0  0  0  0  0  0  0  0  0  0
    5.5983   35.4127   19.5002 H   0  0  0  0  0  0  0  0  0  0  0  0
    6.3201   37.4451   20.5862 H   0  0  0  0  0  0  0  0  0  0  0  0
    7.7653   39.4906   20.6480 H   0  0  0  0  0  0  0  0  0  0  0  0
    9.3923   39.9279   18.7926 H   0  0  0  0  0  0  0  0  0  0  0  0
    9.5723   38.3338   16.8761 H   0  0  0  0  0  0  0  0  0  0  0  0
   10.0448   39.0085   14.9793 H   0  0  0  0  0  0  0  0  0  0  0  0
   11.8417   40.7536   15.0959 H   0  0  0  0  0  0  0  0  0  0  0  0
   14.6094   37.7948   16.6403 H   0  0  0  0  0  0  0  0  0  0  0  0
  1  2  1  0
  2  3  1  0
  3  4  1  0
  4  5  2  0
  4  6  1  0
  6  7  1  0
  6  8  1  0
  8  9  1  0
  9 10  2  0
 10 11  1  0
 11 12  2  0
 11 13  1  0
 10 14  1  0
 14 15  1  0
 15 16  1  0
 16 17  2  0
 17 18  1  0
 18 19  2  0
 19 20  1  0
 20 21  2  0
 21 22  1  0
 22 23  2  0
 23 24  1  0
 24 25  2  0
 14 26  1  0
 26 27  2  0
 27 28  1  0
 28 29  2  0
 29 30  1  0
 29 31  1  0
 31 32  2  0
 32  9  1  0
 25 16  1  0
 32 26  1  0
 25 20  1  0
  1 33  1  0
  1 34  1  0
  1 35  1  0
  2 36  1  0
  2 37  1  0
  7 38  1  0
  7 39  1  0
  7 40  1  0
  8 41  1  0
  8 42  1  0
 15 43  1  0
 15 44  1  0
 17 45  1  0
 18 46  1  0
 19 47  1  0
 21 48  1  0
 22 49  1  0
 23 50  1  0
 24 51  1  0
 27 52  1  0
 28 53  1  0
 31 54  1  0
M  CHG  1  13  -1
M  END
>  <meeko>  (435) 
{"free_energy": -4.86, "intermolecular_energy": -7.24, "internal_energy": -2.08, "cluster_size": 2, "cluster_id": 196, "rank_in_cluster": 1}

$$$$

     RDKit          3D

 54 57  0  0  0  0  0  0  0  0999 V2000
    7.4190   37.9780    8.0030 C   0  0  0  0  0  0  0  0  0  0  0  0
    8.1210   38.7710    9.1080 C   0  0  0  0  0  0  0  0  0  0  0  0
    8.1350   38.0000   10.2990 O   0  0  0  0  0  0  0  0  0  0  0  0
    9.0450   37.0160   10.4560 C   0  0  0  0  0  0  0  0  0  0  0  0
    9.2900   36.1740    9.5900 O   0  0  0  0  0  0  0  0  0  0  0  0
    9.6520   37.1040   11.7160 N   0  0  0  0  0  0  0  0  0  0  0  0
   11.0920   37.3420   11.8730 C   0  0  0  0  0  0  0  0  0  0  0  0
    8.8750   36.9330   12.9500 C   0  0  0  0  0  0  0  0  0  0  0  0
    9.7500   36.9210   14.1810 C   0  0  0  0  0  0  0  0  0  0  0  0
   10.1400   37.9820   14.9780 C   0  0  0  0  0  0  0  0  0  0  0  0
    9.7830   39.4320   14.8780 C   0  0  0  0  0  0  0  0  0  0  0  0
    9.6470   39.9390   13.7430 O   0  0  0  0  0  0  0  0  0  0  0  0
    9.6430   40.1260   15.9080 O   0  0  0  0  0  1  0  0  0  0  0  0
   11.0110   37.5030   15.9800 N   0  0  0  0  0  0  0  0  0  0  0  0
   11.6660   38.2550   17.0540 C   0  0  0  0  0  0  0  0  0  0  0  0
   11.1580   37.9370   18.4660 C   0  0  0  0  0  0  0  0  0  0  0  0
    9.8340   38.2670   18.8530 C   0  0  0  0  0  0  0  0  0  0  0  0
    9.3650   37.9770   20.1460 C   0  0  0  0  0  0  0  0  0  0  0  0
   10.2110   37.3530   21.0770 C   0  0  0  0  0  0  0  0  0  0  0  0
   11.5300   37.0170   20.7170 C   0  0  0  0  0  0  0  0  0  0  0  0
   12.3660   36.3920   21.6650 C   0  0  0  0  0  0  0  0  0  0  0  0
   13.6870   36.0480   21.3280 C   0  0  0  0  0  0  0  0  0  0  0  0
   14.1750   36.3290   20.0400 C   0  0  0  0  0  0  0  0  0  0  0  0
   13.3460   36.9540   19.0890 C   0  0  0  0  0  0  0  0  0  0  0  0
   12.0120   37.3070   19.4110 C   0  0  0  0  0  0  0  0  0  0  0  0
   11.1800   36.1330   15.8220 C   0  0  0  0  0  0  0  0  0  0  0  0
   11.9480   35.1930   16.5380 C   0  0  0  0  0  0  0  0  0  0  0  0
   11.9290   33.8390   16.1620 C   0  0  0  0  0  0  0  0  0  0  0  0
   11.1400   33.4310   15.0720 C   0  0  0  0  0  0  0  0  0  0  0  0
   11.1140   32.1270   14.7060 F   0  0  0  0  0  0  0  0  0  0  0  0
   10.3790   34.3770   14.3590 C   0  0  0  0  0  0  0  0  0  0  0  0
   10.3830   35.7490   14.7110 C   0  0  0  0  0  0  0  0  0  0  0  0
    6.7545   37.2274    8.4559 H   0  0  0  0  0  0  0  0  0  0  0  0
    6.8265   38.6637    7.3795 H   0  0  0  0  0  0  0  0  0  0  0  0
    8.1715   37.4730    7.3795 H   0  0  0  0  0  0  0  0  0  0  0  0
    9.1538   38.9935    8.8017 H   0  0  0  0  0  0  0  0  0  0  0  0
    7.5830   39.7141    9.2847 H   0  0  0  0  0  0  0  0  0  0  0  0
   11.3422   37.3834   12.9434 H   0  0  0  0  0  0  0  0  0  0  0  0
   11.6529   36.5244   11.3966 H   0  0  0  0  0  0  0  0  0  0  0  0
   11.3599   38.2966   11.3966 H   0  0  0  0  0  0  0  0  0  0  0  0
    8.1574   37.7625   13.0341 H   0  0  0  0  0  0  0  0  0  0  0  0
    8.3614   35.9619   12.8926 H   0  0  0  0  0  0  0  0  0  0  0  0
   12.7427   38.0325   17.0198 H   0  0  0  0  0  0  0  0  0  0  0  0
   11.4353   39.3154   16.8740 H   0  0  0  0  0  0  0  0  0  0  0  0
    9.1644   38.7570   18.1308 H   0  0  0  0  0  0  0  0  0  0  0  0
    8.3347   38.2390   20.4287 H   0  0  0  0  0  0  0  0  0  0  0  0
    9.8428   37.1265   22.0885 H   0  0  0  0  0  0  0  0  0  0  0  0
   11.9830   36.1726   22.6726 H   0  0  0  0  0  0  0  0  0  0  0  0
   14.3366   35.5605   22.0699 H   0  0  0  0  0  0  0  0  0  0  0  0
   15.2079   36.0597   19.7743 H   0  0  0  0  0  0  0  0  0  0  0  0
   13.7384   37.1708   18.0845 H   0  0  0  0  0  0  0  0  0  0  0  0
   12.5619   35.5189   17.3906 H   0  0  0  0  0  0  0  0  0  0  0  0
   12.5281   33.1024   16.7174 H   0  0  0  0  0  0  0  0  0  0  0  0
    9.7668   34.0427   13.5084 H   0  0  0  0  0  0  0  0  0  0  0  0
  1  2  1  0
  2  3  1  0
  3  4  1  0
  4  5  2  0
  4  6  1  0
  6  7  1  0
  6  8  1  0
  8  9  1  0
  9 10  2  0
 10 11  1  0
 11 12  2  0
 11 13  1  0
 10 14  1  0
 14 15  1  0
 15 16  1  0
 16 17  2  0
 17 18  1  0
 18 19  2  0
 19 20  1  0
 20 21  2  0
 21 22  1  0
 22 23  2  0
 23 24  1  0
 24 25  2  0
 14 26  1  0
 26 27  2  0
 27 28  1  0
 28 29  2  0
 29 30  1  0
 29 31  1  0
 31 32  2  0
 32  9  1  0
 25 16  1  0
 32 26  1  0
 25 20  1  0
  1 33  1  0
  1 34  1  0
  1 35  1  0
  2 36  1  0
  2 37  1  0
  7 38  1  0
  7 39  1  0
  7 40  1  0
  8 41  1  0
  8 42  1  0
 15 43  1  0
 15 44  1  0
 17 45  1  0
 18 46  1  0
 19 47  1  0
 21 48  1  0
 22 49  1  0
 23 50  1  0
 24 51  1  0
 27 52  1  0
 28 53  1  0
 31 54  1  0
M  CHG  1  13  -1
M  END
>  <meeko>  (436) 
{"free_energy": -5.4, "intermolecular_energy": -7.79, "internal_energy": -1.76, "cluster_size": 34, "cluster_id": 135, "rank_in_cluster": 1}

$$$$

     RDKit          3D

 54 57  0  0  0  0  0  0  0  0999 V2000
   14.1280   40.9730   13.5700 C   0  0  0  0  0  0  0  0  0  0  0  0
   13.5150   41.4570   14.8860 C   0  0  0  0  0  0  0  0  0  0  0  0
   13.4530   40.3730   15.7990 O   0  0  0  0  0  0  0  0  0  0  0  0
   12.9520   39.1830   15.4030 C   0  0  0  0  0  0  0  0  0  0  0  0
   13.5760   38.3840   14.7030 O   0  0  0  0  0  0  0  0  0  0  0  0
   11.6560   39.0050   15.9040 N   0  0  0  0  0  0  0  0  0  0  0  0
   11.3440   37.9930   16.9200 C   0  0  0  0  0  0  0  0  0  0  0  0
   10.5310   39.8090   15.4090 C   0  0  0  0  0  0  0  0  0  0  0  0
   10.2660   39.5820   13.9390 C   0  0  0  0  0  0  0  0  0  0  0  0
   10.3440   40.4860   12.8950 C   0  0  0  0  0  0  0  0  0  0  0  0
   10.7400   41.9280   12.9090 C   0  0  0  0  0  0  0  0  0  0  0  0
   10.9690   42.4770   14.0080 O   0  0  0  0  0  0  0  0  0  0  0  0
   10.8230   42.5770   11.8430 O   0  0  0  0  0  1  0  0  0  0  0  0
    9.9460   39.8400   11.7040 N   0  0  0  0  0  0  0  0  0  0  0  0
    9.8780   40.3920   10.3480 C   0  0  0  0  0  0  0  0  0  0  0  0
   11.2330   40.7680    9.7360 C   0  0  0  0  0  0  0  0  0  0  0  0
   11.4230   42.0260    9.1110 C   0  0  0  0  0  0  0  0  0  0  0  0
   12.6630   42.3750    8.5480 C   0  0  0  0  0  0  0  0  0  0  0  0
   13.7360   41.4720    8.5980 C   0  0  0  0  0  0  0  0  0  0  0  0
   13.5720   40.2150    9.2120 C   0  0  0  0  0  0  0  0  0  0  0  0
   14.6610   39.3200    9.2530 C   0  0  0  0  0  0  0  0  0  0  0  0
   14.5200   38.0590    9.8600 C   0  0  0  0  0  0  0  0  0  0  0  0
   13.2880   37.6920   10.4290 C   0  0  0  0  0  0  0  0  0  0  0  0
   12.1970   38.5810   10.3920 C   0  0  0  0  0  0  0  0  0  0  0  0
   12.3210   39.8550    9.7840 C   0  0  0  0  0  0  0  0  0  0  0  0
    9.6150   38.5210   11.9880 C   0  0  0  0  0  0  0  0  0  0  0  0
    9.1510   37.4720   11.1680 C   0  0  0  0  0  0  0  0  0  0  0  0
    8.8970   36.2070   11.7250 C   0  0  0  0  0  0  0  0  0  0  0  0
    9.1080   35.9960   13.0990 C   0  0  0  0  0  0  0  0  0  0  0  0
    8.8690   34.7790   13.6410 F   0  0  0  0  0  0  0  0  0  0  0  0
    9.5680   37.0500   13.9120 C   0  0  0  0  0  0  0  0  0  0  0  0
    9.8260   38.3370   13.3810 C   0  0  0  0  0  0  0  0  0  0  0  0
   14.9748   40.3044   13.7840 H   0  0  0  0  0  0  0  0  0  0  0  0
   13.3683   40.4285   12.9900 H   0  0  0  0  0  0  0  0  0  0  0  0
   14.4815   41.8383   12.9900 H   0  0  0  0  0  0  0  0  0  0  0  0
   14.1380   42.2589   15.3089 H   0  0  0  0  0  0  0  0  0  0  0  0
   12.5015   41.8428   14.7014 H   0  0  0  0  0  0  0  0  0  0  0  0
   11.4776   38.4263   17.9222 H   0  0  0  0  0  0  0  0  0  0  0  0
   10.3020   37.6617   16.7997 H   0  0  0  0  0  0  0  0  0  0  0  0
   12.0186   37.1325   16.7997 H   0  0  0  0  0  0  0  0  0  0  0  0
    9.6278   39.5406   15.9767 H   0  0  0  0  0  0  0  0  0  0  0  0
   10.7906   40.8694   15.5440 H   0  0  0  0  0  0  0  0  0  0  0  0
    9.4052   39.6420    9.6969 H   0  0  0  0  0  0  0  0  0  0  0  0
    9.3032   41.3268   10.4236 H   0  0  0  0  0  0  0  0  0  0  0  0
   10.5875   42.7400    9.0658 H   0  0  0  0  0  0  0  0  0  0  0  0
   12.7922   43.3563    8.0681 H   0  0  0  0  0  0  0  0  0  0  0  0
   14.7059   41.7460    8.1573 H   0  0  0  0  0  0  0  0  0  0  0  0
   15.6247   39.6092    8.8084 H   0  0  0  0  0  0  0  0  0  0  0  0
   15.3708   37.3624    9.8894 H   0  0  0  0  0  0  0  0  0  0  0  0
   13.1760   36.7066   10.9049 H   0  0  0  0  0  0  0  0  0  0  0  0
   11.2375   38.2833   10.8401 H   0  0  0  0  0  0  0  0  0  0  0  0
    8.9880   37.6435   10.0937 H   0  0  0  0  0  0  0  0  0  0  0  0
    8.5348   35.3858   11.0890 H   0  0  0  0  0  0  0  0  0  0  0  0
    9.7307   36.8691   14.9848 H   0  0  0  0  0  0  0  0  0  0  0  0
  1  2  1  0
  2  3  1  0
  3  4  1  0
  4  5  2  0
  4  6  1  0
  6  7  1  0
  6  8  1  0
  8  9  1  0
  9 10  2  0
 10 11  1  0
 11 12  2  0
 11 13  1  0
 10 14  1  0
 14 15  1  0
 15 16  1  0
 16 17  2  0
 17 18  1  0
 18 19  2  0
 19 20  1  0
 20 21  2  0
 21 22  1  0
 22 23  2  0
 23 24  1  0
 24 25  2  0
 14 26  1  0
 26 27  2  0
 27 28  1  0
 28 29  2  0
 29 30  1  0
 29 31  1  0
 31 32  2  0
 32  9  1  0
 25 16  1  0
 32 26  1  0
 25 20  1  0
  1 33  1  0
  1 34  1  0
  1 35  1  0
  2 36  1  0
  2 37  1  0
  7 38  1  0
  7 39  1  0
  7 40  1  0
  8 41  1  0
  8 42  1  0
 15 43  1  0
 15 44  1  0
 17 45  1  0
 18 46  1  0
 19 47  1  0
 21 48  1  0
 22 49  1  0
 23 50  1  0
 24 51  1  0
 27 52  1  0
 28 53  1  0
 31 54  1  0
M  CHG  1  13  -1
M  END
>  <meeko>  (437) 
{"free_energy": -4.01, "intermolecular_energy": -6.4, "internal_energy": -2.51, "cluster_size": 4, "cluster_id": 316, "rank_in_cluster": 1}

$$$$

     RDKit          3D

 54 57  0  0  0  0  0  0  0  0999 V2000
   17.3470   37.3460   12.8600 C   0  0  0  0  0  0  0  0  0  0  0  0
   17.3800   38.8770   12.8390 C   0  0  0  0  0  0  0  0  0  0  0  0
   16.6680   39.3750   13.9600 O   0  0  0  0  0  0  0  0  0  0  0  0
   15.4910   38.8170   14.3150 C   0  0  0  0  0  0  0  0  0  0  0  0
   15.3580   38.0800   15.2930 O   0  0  0  0  0  0  0  0  0  0  0  0
   14.4770   39.2030   13.4280 N   0  0  0  0  0  0  0  0  0  0  0  0
   14.2330   38.4970   12.1660 C   0  0  0  0  0  0  0  0  0  0  0  0
   13.6200   40.3630   13.7090 C   0  0  0  0  0  0  0  0  0  0  0  0
   12.5770   40.5770   12.6370 C   0  0  0  0  0  0  0  0  0  0  0  0
   11.2030   40.4480   12.7270 C   0  0  0  0  0  0  0  0  0  0  0  0
   10.3530   40.0960   13.9080 C   0  0  0  0  0  0  0  0  0  0  0  0
   10.6430   40.5820   15.0220 O   0  0  0  0  0  0  0  0  0  0  0  0
    9.3830   39.3170   13.7840 O   0  0  0  0  0  1  0  0  0  0  0  0
   10.6400   40.6850   11.4550 N   0  0  0  0  0  0  0  0  0  0  0  0
    9.2260   40.6690   11.0670 C   0  0  0  0  0  0  0  0  0  0  0  0
    8.8430   39.5640   10.0730 C   0  0  0  0  0  0  0  0  0  0  0  0
    8.0250   39.8500    8.9510 C   0  0  0  0  0  0  0  0  0  0  0  0
    7.6720   38.8410    8.0380 C   0  0  0  0  0  0  0  0  0  0  0  0
    8.1270   37.5270    8.2320 C   0  0  0  0  0  0  0  0  0  0  0  0
    8.9390   37.2180    9.3400 C   0  0  0  0  0  0  0  0  0  0  0  0
    9.3870   35.8930    9.5190 C   0  0  0  0  0  0  0  0  0  0  0  0
   10.1980   35.5610   10.6180 C   0  0  0  0  0  0  0  0  0  0  0  0
   10.5640   36.5560   11.5420 C   0  0  0  0  0  0  0  0  0  0  0  0
   10.1190   37.8810   11.3700 C   0  0  0  0  0  0  0  0  0  0  0  0
    9.3020   38.2330   10.2670 C   0  0  0  0  0  0  0  0  0  0  0  0
   11.6550   40.9660   10.5500 C   0  0  0  0  0  0  0  0  0  0  0  0
   11.6310   41.2550    9.1700 C   0  0  0  0  0  0  0  0  0  0  0  0
   12.8310   41.5140    8.4880 C   0  0  0  0  0  0  0  0  0  0  0  0
   14.0500   41.4850    9.1870 C   0  0  0  0  0  0  0  0  0  0  0  0
   15.2100   41.7380    8.5350 F   0  0  0  0  0  0  0  0  0  0  0  0
   14.0670   41.1920   10.5640 C   0  0  0  0  0  0  0  0  0  0  0  0
   12.8750   40.9200   11.2780 C   0  0  0  0  0  0  0  0  0  0  0  0
   17.3394   36.9937   13.9020 H   0  0  0  0  0  0  0  0  0  0  0  0
   16.4410   36.9917   12.3465 H   0  0  0  0  0  0  0  0  0  0  0  0
   18.2369   36.9530   12.3465 H   0  0  0  0  0  0  0  0  0  0  0  0
   18.4233   39.2230   12.8826 H   0  0  0  0  0  0  0  0  0  0  0  0
   16.9136   39.2437   11.9127 H   0  0  0  0  0  0  0  0  0  0  0  0
   13.8805   37.4770   12.3787 H   0  0  0  0  0  0  0  0  0  0  0  0
   13.4689   39.0356   11.5863 H   0  0  0  0  0  0  0  0  0  0  0  0
   15.1666   38.4489   11.5863 H   0  0  0  0  0  0  0  0  0  0  0  0
   13.1111   40.2024   14.6709 H   0  0  0  0  0  0  0  0  0  0  0  0
   14.2611   41.2564   13.7386 H   0  0  0  0  0  0  0  0  0  0  0  0
    8.6231   40.5344   11.9771 H   0  0  0  0  0  0  0  0  0  0  0  0
    9.0345   41.6243   10.5564 H   0  0  0  0  0  0  0  0  0  0  0  0
    7.6614   40.8760    8.7926 H   0  0  0  0  0  0  0  0  0  0  0  0
    7.0389   39.0811    7.1711 H   0  0  0  0  0  0  0  0  0  0  0  0
    7.8488   36.7381    7.5176 H   0  0  0  0  0  0  0  0  0  0  0  0
    9.1005   35.1157    8.7953 H   0  0  0  0  0  0  0  0  0  0  0  0
   10.5453   34.5263   10.7549 H   0  0  0  0  0  0  0  0  0  0  0  0
   11.1999   36.2985   12.4018 H   0  0  0  0  0  0  0  0  0  0  0  0
   10.4088   38.6512   12.0999 H   0  0  0  0  0  0  0  0  0  0  0  0
   10.6738   41.2775    8.6285 H   0  0  0  0  0  0  0  0  0  0  0  0
   12.8170   41.7386    7.4113 H   0  0  0  0  0  0  0  0  0  0  0  0
   15.0288   41.1740   11.0975 H   0  0  0  0  0  0  0  0  0  0  0  0
  1  2  1  0
  2  3  1  0
  3  4  1  0
  4  5  2  0
  4  6  1  0
  6  7  1  0
  6  8  1  0
  8  9  1  0
  9 10  2  0
 10 11  1  0
 11 12  2  0
 11 13  1  0
 10 14  1  0
 14 15  1  0
 15 16  1  0
 16 17  2  0
 17 18  1  0
 18 19  2  0
 19 20  1  0
 20 21  2  0
 21 22  1  0
 22 23  2  0
 23 24  1  0
 24 25  2  0
 14 26  1  0
 26 27  2  0
 27 28  1  0
 28 29  2  0
 29 30  1  0
 29 31  1  0
 31 32  2  0
 32  9  1  0
 25 16  1  0
 32 26  1  0
 25 20  1  0
  1 33  1  0
  1 34  1  0
  1 35  1  0
  2 36  1  0
  2 37  1  0
  7 38  1  0
  7 39  1  0
  7 40  1  0
  8 41  1  0
  8 42  1  0
 15 43  1  0
 15 44  1  0
 17 45  1  0
 18 46  1  0
 19 47  1  0
 21 48  1  0
 22 49  1  0
 23 50  1  0
 24 51  1  0
 27 52  1  0
 28 53  1  0
 31 54  1  0
M  CHG  1  13  -1
M  END
>  <meeko>  (438) 
{"free_energy": -5.32, "intermolecular_energy": -7.71, "internal_energy": -1.71, "cluster_size": 167, "cluster_id": 22, "rank_in_cluster": 107}

$$$$

     RDKit          3D

 54 57  0  0  0  0  0  0  0  0999 V2000
    5.9470   35.4700   17.4300 C   0  0  0  0  0  0  0  0  0  0  0  0
    7.2920   34.7860   17.6870 C   0  0  0  0  0  0  0  0  0  0  0  0
    8.2310   35.2230   16.7180 O   0  0  0  0  0  0  0  0  0  0  0  0
    8.6120   34.3940   15.7230 C   0  0  0  0  0  0  0  0  0  0  0  0
    7.8440   33.6090   15.1630 O   0  0  0  0  0  0  0  0  0  0  0  0
    9.9720   34.5660   15.4330 N   0  0  0  0  0  0  0  0  0  0  0  0
   10.7570   33.5400   14.7380 C   0  0  0  0  0  0  0  0  0  0  0  0
   10.6890   35.7810   15.8400 C   0  0  0  0  0  0  0  0  0  0  0  0
   10.8870   36.7420   14.6910 C   0  0  0  0  0  0  0  0  0  0  0  0
   11.7510   37.8190   14.6000 C   0  0  0  0  0  0  0  0  0  0  0  0
   12.7560   38.3210   15.5880 C   0  0  0  0  0  0  0  0  0  0  0  0
   13.9390   37.9320   15.4920 O   0  0  0  0  0  0  0  0  0  0  0  0
   12.4130   39.1010   16.5040 O   0  0  0  0  0  1  0  0  0  0  0  0
   11.5420   38.4650   13.3630 N   0  0  0  0  0  0  0  0  0  0  0  0
   12.2300   39.6420   12.8240 C   0  0  0  0  0  0  0  0  0  0  0  0
   13.0690   39.3780   11.5660 C   0  0  0  0  0  0  0  0  0  0  0  0
   12.5050   39.5220   10.2740 C   0  0  0  0  0  0  0  0  0  0  0  0
   13.2700   39.2820    9.1190 C   0  0  0  0  0  0  0  0  0  0  0  0
   14.6130   38.8900    9.2360 C   0  0  0  0  0  0  0  0  0  0  0  0
   15.1960   38.7390   10.5080 C   0  0  0  0  0  0  0  0  0  0  0  0
   16.5460   38.3450   10.6060 C   0  0  0  0  0  0  0  0  0  0  0  0
   17.1490   38.1870   11.8670 C   0  0  0  0  0  0  0  0  0  0  0  0
   16.4010   38.4240   13.0340 C   0  0  0  0  0  0  0  0  0  0  0  0
   15.0520   38.8170   12.9430 C   0  0  0  0  0  0  0  0  0  0  0  0
   14.4290   38.9810   11.6810 C   0  0  0  0  0  0  0  0  0  0  0  0
   10.5440   37.8020   12.6620 C   0  0  0  0  0  0  0  0  0  0  0  0
    9.9580   38.0460   11.4030 C   0  0  0  0  0  0  0  0  0  0  0  0
    8.9510   37.1930   10.9210 C   0  0  0  0  0  0  0  0  0  0  0  0
    8.5350   36.0980   11.6980 C   0  0  0  0  0  0  0  0  0  0  0  0
    7.5680   35.2700   11.2370 F   0  0  0  0  0  0  0  0  0  0  0  0
    9.1220   35.8620   12.9560 C   0  0  0  0  0  0  0  0  0  0  0  0
   10.1340   36.7080   13.4720 C   0  0  0  0  0  0  0  0  0  0  0  0
    5.4696   35.7128   18.3908 H   0  0  0  0  0  0  0  0  0  0  0  0
    6.1095   36.3950   16.8573 H   0  0  0  0  0  0  0  0  0  0  0  0
    5.2953   34.7938   16.8573 H   0  0  0  0  0  0  0  0  0  0  0  0
    7.6520   35.0488   18.6927 H   0  0  0  0  0  0  0  0  0  0  0  0
    7.1706   33.6949   17.6177 H   0  0  0  0  0  0  0  0  0  0  0  0
   11.2518   32.8933   15.4776 H   0  0  0  0  0  0  0  0  0  0  0  0
   10.0906   32.9329   14.1076 H   0  0  0  0  0  0  0  0  0  0  0  0
   11.5172   34.0244   14.1076 H   0  0  0  0  0  0  0  0  0  0  0  0
   10.1107   36.2859   16.6278 H   0  0  0  0  0  0  0  0  0  0  0  0
   11.6831   35.4798   16.2019 H   0  0  0  0  0  0  0  0  0  0  0  0
   11.4708   40.3984   12.5763 H   0  0  0  0  0  0  0  0  0  0  0  0
   12.9342   39.9719   13.6019 H   0  0  0  0  0  0  0  0  0  0  0  0
   11.4527   39.8262   10.1732 H   0  0  0  0  0  0  0  0  0  0  0  0
   12.8164   39.4013    8.1240 H   0  0  0  0  0  0  0  0  0  0  0  0
   15.2105   38.7006    8.3321 H   0  0  0  0  0  0  0  0  0  0  0  0
   17.1303   38.1603    9.6925 H   0  0  0  0  0  0  0  0  0  0  0  0
   18.2025   37.8790   11.9400 H   0  0  0  0  0  0  0  0  0  0  0  0
   16.8712   38.3020   14.0209 H   0  0  0  0  0  0  0  0  0  0  0  0
   14.4753   38.9987   13.8619 H   0  0  0  0  0  0  0  0  0  0  0  0
   10.2890   38.9035   10.7987 H   0  0  0  0  0  0  0  0  0  0  0  0
    8.4902   37.3812    9.9400 H   0  0  0  0  0  0  0  0  0  0  0  0
    8.7867   35.0004   13.5520 H   0  0  0  0  0  0  0  0  0  0  0  0
  1  2  1  0
  2  3  1  0
  3  4  1  0
  4  5  2  0
  4  6  1  0
  6  7  1  0
  6  8  1  0
  8  9  1  0
  9 10  2  0
 10 11  1  0
 11 12  2  0
 11 13  1  0
 10 14  1  0
 14 15  1  0
 15 16  1  0
 16 17  2  0
 17 18  1  0
 18 19  2  0
 19 20  1  0
 20 21  2  0
 21 22  1  0
 22 23  2  0
 23 24  1  0
 24 25  2  0
 14 26  1  0
 26 27  2  0
 27 28  1  0
 28 29  2  0
 29 30  1  0
 29 31  1  0
 31 32  2  0
 32  9  1  0
 25 16  1  0
 32 26  1  0
 25 20  1  0
  1 33  1  0
  1 34  1  0
  1 35  1  0
  2 36  1  0
  2 37  1  0
  7 38  1  0
  7 39  1  0
  7 40  1  0
  8 41  1  0
  8 42  1  0
 15 43  1  0
 15 44  1  0
 17 45  1  0
 18 46  1  0
 19 47  1  0
 21 48  1  0
 22 49  1  0
 23 50  1  0
 24 51  1  0
 27 52  1  0
 28 53  1  0
 31 54  1  0
M  CHG  1  13  -1
M  END
>  <meeko>  (439) 
{"free_energy": -6.05, "intermolecular_energy": -8.44, "internal_energy": -1.77, "cluster_size": 84, "cluster_id": 58, "rank_in_cluster": 5}

$$$$

     RDKit          3D

 54 57  0  0  0  0  0  0  0  0999 V2000
   15.0610   38.8070    9.0730 C   0  0  0  0  0  0  0  0  0  0  0  0
   14.9090   37.5680    9.9600 C   0  0  0  0  0  0  0  0  0  0  0  0
   14.3710   37.9550   11.2140 O   0  0  0  0  0  0  0  0  0  0  0  0
   14.7720   39.1050   11.7970 C   0  0  0  0  0  0  0  0  0  0  0  0
   15.9260   39.3030   12.1830 O   0  0  0  0  0  0  0  0  0  0  0  0
   13.7060   40.0090   11.8850 N   0  0  0  0  0  0  0  0  0  0  0  0
   13.7640   41.3450   11.2820 C   0  0  0  0  0  0  0  0  0  0  0  0
   12.4780   39.6700   12.6160 C   0  0  0  0  0  0  0  0  0  0  0  0
   11.2330   39.9920   11.8240 C   0  0  0  0  0  0  0  0  0  0  0  0
   10.8700   39.5530   10.5630 C   0  0  0  0  0  0  0  0  0  0  0  0
   11.5780   38.6120    9.6400 C   0  0  0  0  0  0  0  0  0  0  0  0
   11.7860   37.4400   10.0210 O   0  0  0  0  0  0  0  0  0  0  0  0
   11.9710   38.9980    8.5170 O   0  0  0  0  0  1  0  0  0  0  0  0
    9.6510   40.1670   10.2020 N   0  0  0  0  0  0  0  0  0  0  0  0
    8.8790   39.9990    8.9670 C   0  0  0  0  0  0  0  0  0  0  0  0
    8.2890   38.5980    8.7600 C   0  0  0  0  0  0  0  0  0  0  0  0
    7.7520   38.2140    7.5060 C   0  0  0  0  0  0  0  0  0  0  0  0
    7.2110   36.9320    7.3120 C   0  0  0  0  0  0  0  0  0  0  0  0
    7.1960   36.0080    8.3690 C   0  0  0  0  0  0  0  0  0  0  0  0
    7.7220   36.3660    9.6250 C   0  0  0  0  0  0  0  0  0  0  0  0
    7.6980   35.4260   10.6760 C   0  0  0  0  0  0  0  0  0  0  0  0
    8.2180   35.7610   11.9390 C   0  0  0  0  0  0  0  0  0  0  0  0
    8.7640   37.0390   12.1530 C   0  0  0  0  0  0  0  0  0  0  0  0
    8.7900   37.9830   11.1080 C   0  0  0  0  0  0  0  0  0  0  0  0
    8.2720   37.6610    9.8300 C   0  0  0  0  0  0  0  0  0  0  0  0
    9.2350   41.0000   11.2320 C   0  0  0  0  0  0  0  0  0  0  0  0
    8.1090   41.8380   11.3650 C   0  0  0  0  0  0  0  0  0  0  0  0
    7.9240   42.5810   12.5440 C   0  0  0  0  0  0  0  0  0  0  0  0
    8.8640   42.4810   13.5840 C   0  0  0  0  0  0  0  0  0  0  0  0
    8.6900   43.1920   14.7240 F   0  0  0  0  0  0  0  0  0  0  0  0
    9.9880   41.6450   13.4420 C   0  0  0  0  0  0  0  0  0  0  0  0
   10.2050   40.8900   12.2640 C   0  0  0  0  0  0  0  0  0  0  0  0
   15.1705   39.6999    9.7060 H   0  0  0  0  0  0  0  0  0  0  0  0
   15.9523   38.6962    8.4379 H   0  0  0  0  0  0  0  0  0  0  0  0
   14.1694   38.9149    8.4379 H   0  0  0  0  0  0  0  0  0  0  0  0
   14.2319   36.8494    9.4752 H   0  0  0  0  0  0  0  0  0  0  0  0
   15.8921   37.0975   10.1091 H   0  0  0  0  0  0  0  0  0  0  0  0
   13.7970   42.1048   12.0767 H   0  0  0  0  0  0  0  0  0  0  0  0
   14.6666   41.4270   10.6586 H   0  0  0  0  0  0  0  0  0  0  0  0
   12.8720   41.5049   10.6586 H   0  0  0  0  0  0  0  0  0  0  0  0
   12.4858   38.5932   12.8408 H   0  0  0  0  0  0  0  0  0  0  0  0
   12.4568   40.2720   13.5364 H   0  0  0  0  0  0  0  0  0  0  0  0
    8.0489   40.7206    8.9820 H   0  0  0  0  0  0  0  0  0  0  0  0
    9.5833   40.1629    8.1381 H   0  0  0  0  0  0  0  0  0  0  0  0
    7.7589   38.9308    6.6716 H   0  0  0  0  0  0  0  0  0  0  0  0
    6.7989   36.6520    6.3313 H   0  0  0  0  0  0  0  0  0  0  0  0
    6.7732   35.0041    8.2158 H   0  0  0  0  0  0  0  0  0  0  0  0
    7.2707   34.4265   10.5072 H   0  0  0  0  0  0  0  0  0  0  0  0
    8.1977   35.0256   12.7568 H   0  0  0  0  0  0  0  0  0  0  0  0
    9.1722   37.3024   13.1399 H   0  0  0  0  0  0  0  0  0  0  0  0
    9.2172   38.9808   11.2865 H   0  0  0  0  0  0  0  0  0  0  0  0
    7.3765   41.9103   10.5476 H   0  0  0  0  0  0  0  0  0  0  0  0
    7.0479   43.2374   12.6520 H   0  0  0  0  0  0  0  0  0  0  0  0
   10.7143   41.5768   14.2653 H   0  0  0  0  0  0  0  0  0  0  0  0
  1  2  1  0
  2  3  1  0
  3  4  1  0
  4  5  2  0
  4  6  1  0
  6  7  1  0
  6  8  1  0
  8  9  1  0
  9 10  2  0
 10 11  1  0
 11 12  2  0
 11 13  1  0
 10 14  1  0
 14 15  1  0
 15 16  1  0
 16 17  2  0
 17 18  1  0
 18 19  2  0
 19 20  1  0
 20 21  2  0
 21 22  1  0
 22 23  2  0
 23 24  1  0
 24 25  2  0
 14 26  1  0
 26 27  2  0
 27 28  1  0
 28 29  2  0
 29 30  1  0
 29 31  1  0
 31 32  2  0
 32  9  1  0
 25 16  1  0
 32 26  1  0
 25 20  1  0
  1 33  1  0
  1 34  1  0
  1 35  1  0
  2 36  1  0
  2 37  1  0
  7 38  1  0
  7 39  1  0
  7 40  1  0
  8 41  1  0
  8 42  1  0
 15 43  1  0
 15 44  1  0
 17 45  1  0
 18 46  1  0
 19 47  1  0
 21 48  1  0
 22 49  1  0
 23 50  1  0
 24 51  1  0
 27 52  1  0
 28 53  1  0
 31 54  1  0
M  CHG  1  13  -1
M  END
>  <meeko>  (440) 
{"free_energy": -6.48, "intermolecular_energy": -8.86, "internal_energy": -0.87, "cluster_size": 417, "cluster_id": 2, "rank_in_cluster": 218}

$$$$

     RDKit          3D

 54 57  0  0  0  0  0  0  0  0999 V2000
    7.3770   34.7270   16.8920 C   0  0  0  0  0  0  0  0  0  0  0  0
    7.9970   35.4450   18.0930 C   0  0  0  0  0  0  0  0  0  0  0  0
    9.3130   35.8580   17.7620 O   0  0  0  0  0  0  0  0  0  0  0  0
    9.6400   37.1680   17.8000 C   0  0  0  0  0  0  0  0  0  0  0  0
    9.8180   37.7910   18.8480 O   0  0  0  0  0  0  0  0  0  0  0  0
    9.7490   37.6850   16.5030 N   0  0  0  0  0  0  0  0  0  0  0  0
    9.6340   39.1210   16.2240 C   0  0  0  0  0  0  0  0  0  0  0  0
    9.9560   36.8040   15.3460 C   0  0  0  0  0  0  0  0  0  0  0  0
   10.7870   37.4600   14.2690 C   0  0  0  0  0  0  0  0  0  0  0  0
   12.0320   38.0540   14.3760 C   0  0  0  0  0  0  0  0  0  0  0  0
   12.9260   38.1880   15.5680 C   0  0  0  0  0  0  0  0  0  0  0  0
   14.1640   38.1720   15.3960 O   0  0  0  0  0  0  0  0  0  0  0  0
   12.4430   38.2940   16.7170 O   0  0  0  0  0  1  0  0  0  0  0  0
   12.3900   38.5900   13.1200 N   0  0  0  0  0  0  0  0  0  0  0  0
   13.6170   39.2990   12.7490 C   0  0  0  0  0  0  0  0  0  0  0  0
   14.1750   38.9410   11.3650 C   0  0  0  0  0  0  0  0  0  0  0  0
   14.8440   37.7100   11.1480 C   0  0  0  0  0  0  0  0  0  0  0  0
   15.3570   37.3780    9.8820 C   0  0  0  0  0  0  0  0  0  0  0  0
   15.2120   38.2720    8.8090 C   0  0  0  0  0  0  0  0  0  0  0  0
   14.5540   39.5020    9.0000 C   0  0  0  0  0  0  0  0  0  0  0  0
   14.4180   40.3880    7.9110 C   0  0  0  0  0  0  0  0  0  0  0  0
   13.7650   41.6220    8.0780 C   0  0  0  0  0  0  0  0  0  0  0  0
   13.2440   41.9720    9.3370 C   0  0  0  0  0  0  0  0  0  0  0  0
   13.3760   41.0920   10.4280 C   0  0  0  0  0  0  0  0  0  0  0  0
   14.0320   39.8450   10.2770 C   0  0  0  0  0  0  0  0  0  0  0  0
   11.3720   38.3390   12.2090 C   0  0  0  0  0  0  0  0  0  0  0  0
   11.2280   38.6710   10.8460 C   0  0  0  0  0  0  0  0  0  0  0  0
   10.0740   38.2770   10.1470 C   0  0  0  0  0  0  0  0  0  0  0  0
    9.0710   37.5520   10.8120 C   0  0  0  0  0  0  0  0  0  0  0  0
    7.9580   37.1660   10.1430 F   0  0  0  0  0  0  0  0  0  0  0  0
    9.2200   37.2280   12.1750 C   0  0  0  0  0  0  0  0  0  0  0  0
   10.3670   37.6170   12.9070 C   0  0  0  0  0  0  0  0  0  0  0  0
    6.6966   33.9390   17.2471 H   0  0  0  0  0  0  0  0  0  0  0  0
    6.8146   35.4500   16.2828 H   0  0  0  0  0  0  0  0  0  0  0  0
    8.1742   34.2760   16.2828 H   0  0  0  0  0  0  0  0  0  0  0  0
    7.3889   36.3250   18.3495 H   0  0  0  0  0  0  0  0  0  0  0  0
    8.0301   34.7621   18.9547 H   0  0  0  0  0  0  0  0  0  0  0  0
    9.5895   39.6764   17.1725 H   0  0  0  0  0  0  0  0  0  0  0  0
   10.5084   39.4532   15.6452 H   0  0  0  0  0  0  0  0  0  0  0  0
    8.7179   39.3099   15.6452 H   0  0  0  0  0  0  0  0  0  0  0  0
   10.4699   35.8917   15.6832 H   0  0  0  0  0  0  0  0  0  0  0  0
    8.9696   36.5735   14.9171 H   0  0  0  0  0  0  0  0  0  0  0  0
   13.4060   40.3785   12.7639 H   0  0  0  0  0  0  0  0  0  0  0  0
   14.3821   38.9956   13.4788 H   0  0  0  0  0  0  0  0  0  0  0  0
   14.9635   37.0039   11.9830 H   0  0  0  0  0  0  0  0  0  0  0  0
   15.8721   36.4177    9.7319 H   0  0  0  0  0  0  0  0  0  0  0  0
   15.6128   38.0112    7.8184 H   0  0  0  0  0  0  0  0  0  0  0  0
   14.8246   40.1124    6.9268 H   0  0  0  0  0  0  0  0  0  0  0  0
   13.6619   42.3114    7.2271 H   0  0  0  0  0  0  0  0  0  0  0  0
   12.7318   42.9364    9.4695 H   0  0  0  0  0  0  0  0  0  0  0  0
   12.9654   41.3755   11.4083 H   0  0  0  0  0  0  0  0  0  0  0  0
   12.0176   39.2375   10.3307 H   0  0  0  0  0  0  0  0  0  0  0  0
    9.9567   38.5351    9.0842 H   0  0  0  0  0  0  0  0  0  0  0  0
    8.4264   36.6595   12.6820 H   0  0  0  0  0  0  0  0  0  0  0  0
  1  2  1  0
  2  3  1  0
  3  4  1  0
  4  5  2  0
  4  6  1  0
  6  7  1  0
  6  8  1  0
  8  9  1  0
  9 10  2  0
 10 11  1  0
 11 12  2  0
 11 13  1  0
 10 14  1  0
 14 15  1  0
 15 16  1  0
 16 17  2  0
 17 18  1  0
 18 19  2  0
 19 20  1  0
 20 21  2  0
 21 22  1  0
 22 23  2  0
 23 24  1  0
 24 25  2  0
 14 26  1  0
 26 27  2  0
 27 28  1  0
 28 29  2  0
 29 30  1  0
 29 31  1  0
 31 32  2  0
 32  9  1  0
 25 16  1  0
 32 26  1  0
 25 20  1  0
  1 33  1  0
  1 34  1  0
  1 35  1  0
  2 36  1  0
  2 37  1  0
  7 38  1  0
  7 39  1  0
  7 40  1  0
  8 41  1  0
  8 42  1  0
 15 43  1  0
 15 44  1  0
 17 45  1  0
 18 46  1  0
 19 47  1  0
 21 48  1  0
 22 49  1  0
 23 50  1  0
 24 51  1  0
 27 52  1  0
 28 53  1  0
 31 54  1  0
M  CHG  1  13  -1
M  END
>  <meeko>  (441) 
{"free_energy": -4.41, "intermolecular_energy": -6.8, "internal_energy": -1.6, "cluster_size": 34, "cluster_id": 100, "rank_in_cluster": 27}

$$$$

     RDKit          3D

 54 57  0  0  0  0  0  0  0  0999 V2000
   14.5150   35.8430   20.0080 C   0  0  0  0  0  0  0  0  0  0  0  0
   14.4170   36.7920   18.8100 C   0  0  0  0  0  0  0  0  0  0  0  0
   13.4740   36.2780   17.8840 O   0  0  0  0  0  0  0  0  0  0  0  0
   13.0610   37.0380   16.8470 C   0  0  0  0  0  0  0  0  0  0  0  0
   13.7700   37.3020   15.8750 O   0  0  0  0  0  0  0  0  0  0  0  0
   11.7400   37.4610   17.0440 N   0  0  0  0  0  0  0  0  0  0  0  0
   10.8530   36.8190   18.0210 C   0  0  0  0  0  0  0  0  0  0  0  0
   11.1650   38.5580   16.2550 C   0  0  0  0  0  0  0  0  0  0  0  0
   11.0820   38.2220   14.7840 C   0  0  0  0  0  0  0  0  0  0  0  0
   10.2400   37.3300   14.1450 C   0  0  0  0  0  0  0  0  0  0  0  0
    9.1520   36.4730   14.7100 C   0  0  0  0  0  0  0  0  0  0  0  0
    9.2830   36.0220   15.8690 O   0  0  0  0  0  0  0  0  0  0  0  0
    8.1400   36.1970   14.0300 O   0  0  0  0  0  1  0  0  0  0  0  0
   10.5670   37.3000   12.7720 N   0  0  0  0  0  0  0  0  0  0  0  0
    9.9420   36.5140   11.7040 C   0  0  0  0  0  0  0  0  0  0  0  0
    9.2040   37.3410   10.6420 C   0  0  0  0  0  0  0  0  0  0  0  0
    9.0490   38.7420   10.7920 C   0  0  0  0  0  0  0  0  0  0  0  0
    8.3740   39.5030    9.8220 C   0  0  0  0  0  0  0  0  0  0  0  0
    7.8400   38.8770    8.6850 C   0  0  0  0  0  0  0  0  0  0  0  0
    7.9800   37.4870    8.5140 C   0  0  0  0  0  0  0  0  0  0  0  0
    7.4370   36.8750    7.3650 C   0  0  0  0  0  0  0  0  0  0  0  0
    7.5640   35.4880    7.1740 C   0  0  0  0  0  0  0  0  0  0  0  0
    8.2370   34.7090    8.1320 C   0  0  0  0  0  0  0  0  0  0  0  0
    8.7800   35.3130    9.2820 C   0  0  0  0  0  0  0  0  0  0  0  0
    8.6620   36.7100    9.4900 C   0  0  0  0  0  0  0  0  0  0  0  0
   11.6200   38.1730   12.5330 C   0  0  0  0  0  0  0  0  0  0  0  0
   12.3220   38.4980   11.3550 C   0  0  0  0  0  0  0  0  0  0  0  0
   13.3620   39.4420   11.3960 C   0  0  0  0  0  0  0  0  0  0  0  0
   13.6960   40.0580   12.6150 C   0  0  0  0  0  0  0  0  0  0  0  0
   14.6950   40.9710   12.6610 F   0  0  0  0  0  0  0  0  0  0  0  0
   12.9930   39.7240   13.7890 C   0  0  0  0  0  0  0  0  0  0  0  0
   11.9450   38.7720   13.7800 C   0  0  0  0  0  0  0  0  0  0  0  0
   14.4551   36.4228   20.9409 H   0  0  0  0  0  0  0  0  0  0  0  0
   13.6867   35.1200   19.9718 H   0  0  0  0  0  0  0  0  0  0  0  0
   15.4735   35.3046   19.9718 H   0  0  0  0  0  0  0  0  0  0  0  0
   14.0920   37.7853   19.1531 H   0  0  0  0  0  0  0  0  0  0  0  0
   15.4009   36.8789   18.3258 H   0  0  0  0  0  0  0  0  0  0  0  0
   11.1907   37.0634   19.0389 H   0  0  0  0  0  0  0  0  0  0  0  0
    9.8251   37.1837   17.8782 H   0  0  0  0  0  0  0  0  0  0  0  0
   10.8783   35.7286   17.8782 H   0  0  0  0  0  0  0  0  0  0  0  0
   10.1518   38.7689   16.6277 H   0  0  0  0  0  0  0  0  0  0  0  0
   11.8226   39.4329   16.3645 H   0  0  0  0  0  0  0  0  0  0  0  0
   10.7297   35.9348   11.1999 H   0  0  0  0  0  0  0  0  0  0  0  0
    9.1816   35.8838   12.1885 H   0  0  0  0  0  0  0  0  0  0  0  0
    9.4631   39.2410   11.6806 H   0  0  0  0  0  0  0  0  0  0  0  0
    8.2642   40.5895    9.9541 H   0  0  0  0  0  0  0  0  0  0  0  0
    7.3115   39.4734    7.9267 H   0  0  0  0  0  0  0  0  0  0  0  0
    6.9121   37.4854    6.6154 H   0  0  0  0  0  0  0  0  0  0  0  0
    7.1381   35.0134    6.2777 H   0  0  0  0  0  0  0  0  0  0  0  0
    8.3395   33.6241    7.9824 H   0  0  0  0  0  0  0  0  0  0  0  0
    9.3014   34.6941   10.0270 H   0  0  0  0  0  0  0  0  0  0  0  0
   12.0560   38.0131   10.4042 H   0  0  0  0  0  0  0  0  0  0  0  0
   13.9124   39.6979   10.4786 H   0  0  0  0  0  0  0  0  0  0  0  0
   13.2647   40.2145   14.7354 H   0  0  0  0  0  0  0  0  0  0  0  0
  1  2  1  0
  2  3  1  0
  3  4  1  0
  4  5  2  0
  4  6  1  0
  6  7  1  0
  6  8  1  0
  8  9  1  0
  9 10  2  0
 10 11  1  0
 11 12  2  0
 11 13  1  0
 10 14  1  0
 14 15  1  0
 15 16  1  0
 16 17  2  0
 17 18  1  0
 18 19  2  0
 19 20  1  0
 20 21  2  0
 21 22  1  0
 22 23  2  0
 23 24  1  0
 24 25  2  0
 14 26  1  0
 26 27  2  0
 27 28  1  0
 28 29  2  0
 29 30  1  0
 29 31  1  0
 31 32  2  0
 32  9  1  0
 25 16  1  0
 32 26  1  0
 25 20  1  0
  1 33  1  0
  1 34  1  0
  1 35  1  0
  2 36  1  0
  2 37  1  0
  7 38  1  0
  7 39  1  0
  7 40  1  0
  8 41  1  0
  8 42  1  0
 15 43  1  0
 15 44  1  0
 17 45  1  0
 18 46  1  0
 19 47  1  0
 21 48  1  0
 22 49  1  0
 23 50  1  0
 24 51  1  0
 27 52  1  0
 28 53  1  0
 31 54  1  0
M  CHG  1  13  -1
M  END
>  <meeko>  (442) 
{"free_energy": -6.74, "intermolecular_energy": -9.13, "internal_energy": -1.64, "cluster_size": 263, "cluster_id": 1, "rank_in_cluster": 129}

$$$$

     RDKit          3D

 54 57  0  0  0  0  0  0  0  0999 V2000
    8.0400   37.3200   18.5640 C   0  0  0  0  0  0  0  0  0  0  0  0
    9.3490   36.5310   18.6610 C   0  0  0  0  0  0  0  0  0  0  0  0
   10.0690   36.9610   19.8060 O   0  0  0  0  0  0  0  0  0  0  0  0
   11.3820   37.2570   19.7070 C   0  0  0  0  0  0  0  0  0  0  0  0
   12.2420   36.7840   20.4520 O   0  0  0  0  0  0  0  0  0  0  0  0
   11.6060   38.1530   18.6530 N   0  0  0  0  0  0  0  0  0  0  0  0
   11.0450   39.5080   18.6470 C   0  0  0  0  0  0  0  0  0  0  0  0
   12.3970   37.7630   17.4770 C   0  0  0  0  0  0  0  0  0  0  0  0
   11.5280   37.3200   16.3240 C   0  0  0  0  0  0  0  0  0  0  0  0
   10.7640   38.0930   15.4670 C   0  0  0  0  0  0  0  0  0  0  0  0
   10.6040   39.5790   15.4100 C   0  0  0  0  0  0  0  0  0  0  0  0
    9.6290   40.1010   15.9920 O   0  0  0  0  0  0  0  0  0  0  0  0
   11.4200   40.2830   14.7760 O   0  0  0  0  0  1  0  0  0  0  0  0
   10.0690   37.2400   14.5840 N   0  0  0  0  0  0  0  0  0  0  0  0
    9.1510   37.6030   13.5000 C   0  0  0  0  0  0  0  0  0  0  0  0
    9.8050   37.7370   12.1190 C   0  0  0  0  0  0  0  0  0  0  0  0
   10.3700   36.6100   11.4710 C   0  0  0  0  0  0  0  0  0  0  0  0
   10.9700   36.7280   10.2050 C   0  0  0  0  0  0  0  0  0  0  0  0
   11.0180   37.9770    9.5650 C   0  0  0  0  0  0  0  0  0  0  0  0
   10.4650   39.1110   10.1880 C   0  0  0  0  0  0  0  0  0  0  0  0
   10.5230   40.3570    9.5300 C   0  0  0  0  0  0  0  0  0  0  0  0
    9.9780   41.5040   10.1350 C   0  0  0  0  0  0  0  0  0  0  0  0
    9.3720   41.4070   11.4000 C   0  0  0  0  0  0  0  0  0  0  0  0
    9.3120   40.1660   12.0630 C   0  0  0  0  0  0  0  0  0  0  0  0
    9.8560   39.0000   11.4680 C   0  0  0  0  0  0  0  0  0  0  0  0
   10.3880   35.9200   14.8760 C   0  0  0  0  0  0  0  0  0  0  0  0
    9.9600   34.7020   14.3080 C   0  0  0  0  0  0  0  0  0  0  0  0
   10.4590   33.4850   14.8020 C   0  0  0  0  0  0  0  0  0  0  0  0
   11.3850   33.4900   15.8600 C   0  0  0  0  0  0  0  0  0  0  0  0
   11.8730   32.3210   16.3380 F   0  0  0  0  0  0  0  0  0  0  0  0
   11.8050   34.7100   16.4240 C   0  0  0  0  0  0  0  0  0  0  0  0
   11.3140   35.9520   15.9520 C   0  0  0  0  0  0  0  0  0  0  0  0
    7.6703   37.5428   19.5758 H   0  0  0  0  0  0  0  0  0  0  0  0
    8.2184   38.2612   18.0233 H   0  0  0  0  0  0  0  0  0  0  0  0
    7.2911   36.7227   18.0233 H   0  0  0  0  0  0  0  0  0  0  0  0
    9.1259   35.4574   18.7484 H   0  0  0  0  0  0  0  0  0  0  0  0
    9.9528   36.7042   17.7580 H   0  0  0  0  0  0  0  0  0  0  0  0
   10.9031   39.8507   19.6826 H   0  0  0  0  0  0  0  0  0  0  0  0
   11.7354   40.1884   18.1270 H   0  0  0  0  0  0  0  0  0  0  0  0
   10.0757   39.5012   18.1270 H   0  0  0  0  0  0  0  0  0  0  0  0
   13.0004   38.6245   17.1548 H   0  0  0  0  0  0  0  0  0  0  0  0
   13.0329   36.9131   17.7655 H   0  0  0  0  0  0  0  0  0  0  0  0
    8.3735   36.8275   13.4363 H   0  0  0  0  0  0  0  0  0  0  0  0
    8.7537   38.5974   13.7515 H   0  0  0  0  0  0  0  0  0  0  0  0
   10.3385   35.6282   11.9661 H   0  0  0  0  0  0  0  0  0  0  0  0
   11.4017   35.8423    9.7160 H   0  0  0  0  0  0  0  0  0  0  0  0
   11.4887   38.0690    8.5750 H   0  0  0  0  0  0  0  0  0  0  0  0
   10.9962   40.4322    8.5399 H   0  0  0  0  0  0  0  0  0  0  0  0
   10.0258   42.4746    9.6196 H   0  0  0  0  0  0  0  0  0  0  0  0
    8.9436   42.3029   11.8731 H   0  0  0  0  0  0  0  0  0  0  0  0
    8.8378   40.1007   13.0534 H   0  0  0  0  0  0  0  0  0  0  0  0
    9.2365   34.7049   13.4794 H   0  0  0  0  0  0  0  0  0  0  0  0
   10.1267   32.5327   14.3630 H   0  0  0  0  0  0  0  0  0  0  0  0
   12.5311   34.6982   17.2502 H   0  0  0  0  0  0  0  0  0  0  0  0
  1  2  1  0
  2  3  1  0
  3  4  1  0
  4  5  2  0
  4  6  1  0
  6  7  1  0
  6  8  1  0
  8  9  1  0
  9 10  2  0
 10 11  1  0
 11 12  2  0
 11 13  1  0
 10 14  1  0
 14 15  1  0
 15 16  1  0
 16 17  2  0
 17 18  1  0
 18 19  2  0
 19 20  1  0
 20 21  2  0
 21 22  1  0
 22 23  2  0
 23 24  1  0
 24 25  2  0
 14 26  1  0
 26 27  2  0
 27 28  1  0
 28 29  2  0
 29 30  1  0
 29 31  1  0
 31 32  2  0
 32  9  1  0
 25 16  1  0
 32 26  1  0
 25 20  1  0
  1 33  1  0
  1 34  1  0
  1 35  1  0
  2 36  1  0
  2 37  1  0
  7 38  1  0
  7 39  1  0
  7 40  1  0
  8 41  1  0
  8 42  1  0
 15 43  1  0
 15 44  1  0
 17 45  1  0
 18 46  1  0
 19 47  1  0
 21 48  1  0
 22 49  1  0
 23 50  1  0
 24 51  1  0
 27 52  1  0
 28 53  1  0
 31 54  1  0
M  CHG  1  13  -1
M  END
>  <meeko>  (443) 
{"free_energy": -4.8, "intermolecular_energy": -7.19, "internal_energy": -2.28, "cluster_size": 66, "cluster_id": 61, "rank_in_cluster": 42}

$$$$

     RDKit          3D

 54 57  0  0  0  0  0  0  0  0999 V2000
   11.4400   41.1730   17.8460 C   0  0  0  0  0  0  0  0  0  0  0  0
   12.4960   40.2050   17.3040 C   0  0  0  0  0  0  0  0  0  0  0  0
   13.3170   40.8860   16.3690 O   0  0  0  0  0  0  0  0  0  0  0  0
   12.7960   41.3210   15.2020 C   0  0  0  0  0  0  0  0  0  0  0  0
   13.0170   42.4410   14.7360 O   0  0  0  0  0  0  0  0  0  0  0  0
   11.9970   40.3290   14.6200 N   0  0  0  0  0  0  0  0  0  0  0  0
   10.5560   40.5100   14.4120 C   0  0  0  0  0  0  0  0  0  0  0  0
   12.5630   39.0360   14.2140 C   0  0  0  0  0  0  0  0  0  0  0  0
   11.5100   38.0900   13.6860 C   0  0  0  0  0  0  0  0  0  0  0  0
   11.1920   37.7920   12.3720 C   0  0  0  0  0  0  0  0  0  0  0  0
   11.8150   38.2860   11.1050 C   0  0  0  0  0  0  0  0  0  0  0  0
   12.0690   39.5050   10.9960 O   0  0  0  0  0  0  0  0  0  0  0  0
   12.0600   37.4970   10.1660 O   0  0  0  0  0  1  0  0  0  0  0  0
   10.0960   36.9030   12.3600 N   0  0  0  0  0  0  0  0  0  0  0  0
    9.4210   36.3060   11.2040 C   0  0  0  0  0  0  0  0  0  0  0  0
    8.8750   37.3150   10.1850 C   0  0  0  0  0  0  0  0  0  0  0  0
    8.9070   38.7070   10.4520 C   0  0  0  0  0  0  0  0  0  0  0  0
    8.4080   39.6340    9.5210 C   0  0  0  0  0  0  0  0  0  0  0  0
    7.8650   39.1860    8.3060 C   0  0  0  0  0  0  0  0  0  0  0  0
    7.8200   37.8090    8.0180 C   0  0  0  0  0  0  0  0  0  0  0  0
    7.2700   37.3770    6.7930 C   0  0  0  0  0  0  0  0  0  0  0  0
    7.2150   36.0060    6.4850 C   0  0  0  0  0  0  0  0  0  0  0  0
    7.7100   35.0630    7.4030 C   0  0  0  0  0  0  0  0  0  0  0  0
    8.2590   35.4870    8.6280 C   0  0  0  0  0  0  0  0  0  0  0  0
    8.3230   36.8640    8.9540 C   0  0  0  0  0  0  0  0  0  0  0  0
    9.7120   36.6330   13.6670 C   0  0  0  0  0  0  0  0  0  0  0  0
    8.6800   35.8300   14.1960 C   0  0  0  0  0  0  0  0  0  0  0  0
    8.5170   35.7260   15.5870 C   0  0  0  0  0  0  0  0  0  0  0  0
    9.3870   36.4210   16.4450 C   0  0  0  0  0  0  0  0  0  0  0  0
    9.2370   36.3210   17.7870 F   0  0  0  0  0  0  0  0  0  0  0  0
   10.4130   37.2230   15.9090 C   0  0  0  0  0  0  0  0  0  0  0  0
   10.5980   37.3540   14.5110 C   0  0  0  0  0  0  0  0  0  0  0  0
   11.4577   41.1567   18.9457 H   0  0  0  0  0  0  0  0  0  0  0  0
   11.6588   42.1908   17.4908 H   0  0  0  0  0  0  0  0  0  0  0  0
   10.4450   40.8667   17.4908 H   0  0  0  0  0  0  0  0  0  0  0  0
   13.1144   39.8328   18.1341 H   0  0  0  0  0  0  0  0  0  0  0  0
   12.0004   39.3558   16.8109 H   0  0  0  0  0  0  0  0  0  0  0  0
   10.0500   40.5736   15.3866 H   0  0  0  0  0  0  0  0  0  0  0  0
   10.3807   41.4372   13.8467 H   0  0  0  0  0  0  0  0  0  0  0  0
   10.1569   39.6549   13.8467 H   0  0  0  0  0  0  0  0  0  0  0  0
   13.3106   39.2089   13.4258 H   0  0  0  0  0  0  0  0  0  0  0  0
   13.0164   38.5729   15.1028 H   0  0  0  0  0  0  0  0  0  0  0  0
   10.1401   35.6533   10.6875 H   0  0  0  0  0  0  0  0  0  0  0  0
    8.5496   35.7643   11.6004 H   0  0  0  0  0  0  0  0  0  0  0  0
    9.3287   39.0669   11.4021 H   0  0  0  0  0  0  0  0  0  0  0  0
    8.4428   40.7106    9.7441 H   0  0  0  0  0  0  0  0  0  0  0  0
    7.4742   39.9123    7.5782 H   0  0  0  0  0  0  0  0  0  0  0  0
    6.8826   38.1155    6.0757 H   0  0  0  0  0  0  0  0  0  0  0  0
    6.7860   35.6723    5.5287 H   0  0  0  0  0  0  0  0  0  0  0  0
    7.6681   33.9903    7.1632 H   0  0  0  0  0  0  0  0  0  0  0  0
    8.6424   34.7410    9.3397 H   0  0  0  0  0  0  0  0  0  0  0  0
    8.0039   35.2861   13.5200 H   0  0  0  0  0  0  0  0  0  0  0  0
    7.7117   35.1031   16.0035 H   0  0  0  0  0  0  0  0  0  0  0  0
   11.0868   37.7605   16.5924 H   0  0  0  0  0  0  0  0  0  0  0  0
  1  2  1  0
  2  3  1  0
  3  4  1  0
  4  5  2  0
  4  6  1  0
  6  7  1  0
  6  8  1  0
  8  9  1  0
  9 10  2  0
 10 11  1  0
 11 12  2  0
 11 13  1  0
 10 14  1  0
 14 15  1  0
 15 16  1  0
 16 17  2  0
 17 18  1  0
 18 19  2  0
 19 20  1  0
 20 21  2  0
 21 22  1  0
 22 23  2  0
 23 24  1  0
 24 25  2  0
 14 26  1  0
 26 27  2  0
 27 28  1  0
 28 29  2  0
 29 30  1  0
 29 31  1  0
 31 32  2  0
 32  9  1  0
 25 16  1  0
 32 26  1  0
 25 20  1  0
  1 33  1  0
  1 34  1  0
  1 35  1  0
  2 36  1  0
  2 37  1  0
  7 38  1  0
  7 39  1  0
  7 40  1  0
  8 41  1  0
  8 42  1  0
 15 43  1  0
 15 44  1  0
 17 45  1  0
 18 46  1  0
 19 47  1  0
 21 48  1  0
 22 49  1  0
 23 50  1  0
 24 51  1  0
 27 52  1  0
 28 53  1  0
 31 54  1  0
M  CHG  1  13  -1
M  END
>  <meeko>  (444) 
{"free_energy": -6.05, "intermolecular_energy": -8.44, "internal_energy": -1.61, "cluster_size": 326, "cluster_id": 11, "rank_in_cluster": 125}

$$$$

     RDKit          3D

 54 57  0  0  0  0  0  0  0  0999 V2000
    7.8130   37.6090   18.1120 C   0  0  0  0  0  0  0  0  0  0  0  0
    8.9290   38.3100   18.8910 C   0  0  0  0  0  0  0  0  0  0  0  0
    9.1730   39.5820   18.3140 O   0  0  0  0  0  0  0  0  0  0  0  0
   10.3430   39.8280   17.6880 C   0  0  0  0  0  0  0  0  0  0  0  0
   11.3170   40.3360   18.2470 O   0  0  0  0  0  0  0  0  0  0  0  0
   10.2800   39.4220   16.3490 N   0  0  0  0  0  0  0  0  0  0  0  0
    9.8930   40.3410   15.2720 C   0  0  0  0  0  0  0  0  0  0  0  0
   10.5720   38.0370   15.9580 C   0  0  0  0  0  0  0  0  0  0  0  0
   10.8920   37.9120   14.4870 C   0  0  0  0  0  0  0  0  0  0  0  0
   10.1970   37.2300   13.5040 C   0  0  0  0  0  0  0  0  0  0  0  0
    8.9220   36.4540   13.6010 C   0  0  0  0  0  0  0  0  0  0  0  0
    8.7030   35.5510   12.7650 O   0  0  0  0  0  0  0  0  0  0  0  0
    8.0820   36.7170   14.4890 O   0  0  0  0  0  1  0  0  0  0  0  0
   10.9050   37.3400   12.2880 N   0  0  0  0  0  0  0  0  0  0  0  0
   10.5520   36.7910   10.9760 C   0  0  0  0  0  0  0  0  0  0  0  0
    9.5730   37.6460   10.1610 C   0  0  0  0  0  0  0  0  0  0  0  0
    9.4990   39.0480   10.3560 C   0  0  0  0  0  0  0  0  0  0  0  0
    8.6040   39.8360    9.6110 C   0  0  0  0  0  0  0  0  0  0  0  0
    7.7640   39.2350    8.6590 C   0  0  0  0  0  0  0  0  0  0  0  0
    7.8180   37.8450    8.4490 C   0  0  0  0  0  0  0  0  0  0  0  0
    6.9670   37.2580    7.4890 C   0  0  0  0  0  0  0  0  0  0  0  0
    7.0040   35.8710    7.2620 C   0  0  0  0  0  0  0  0  0  0  0  0
    7.8930   35.0660    7.9960 C   0  0  0  0  0  0  0  0  0  0  0  0
    8.7450   35.6450    8.9560 C   0  0  0  0  0  0  0  0  0  0  0  0
    8.7210   37.0410    9.1970 C   0  0  0  0  0  0  0  0  0  0  0  0
   12.0540   38.0920   12.4940 C   0  0  0  0  0  0  0  0  0  0  0  0
   13.0940   38.4770   11.6230 C   0  0  0  0  0  0  0  0  0  0  0  0
   14.1550   39.2640   12.1020 C   0  0  0  0  0  0  0  0  0  0  0  0
   14.1720   39.6640   13.4500 C   0  0  0  0  0  0  0  0  0  0  0  0
   15.1890   40.4260   13.9170 F   0  0  0  0  0  0  0  0  0  0  0  0
   13.1310   39.2720   14.3150 C   0  0  0  0  0  0  0  0  0  0  0  0
   12.0530   38.4740   13.8620 C   0  0  0  0  0  0  0  0  0  0  0  0
    7.0988   37.1604   18.8182 H   0  0  0  0  0  0  0  0  0  0  0  0
    7.2914   38.3420   17.4790 H   0  0  0  0  0  0  0  0  0  0  0  0
    8.2469   36.8209   17.4790 H   0  0  0  0  0  0  0  0  0  0  0  0
    8.6229   38.4346   19.9402 H   0  0  0  0  0  0  0  0  0  0  0  0
    9.8457   37.7035   18.8493 H   0  0  0  0  0  0  0  0  0  0  0  0
    9.5010   41.2719   15.7075 H   0  0  0  0  0  0  0  0  0  0  0  0
   10.7717   40.5685   14.6507 H   0  0  0  0  0  0  0  0  0  0  0  0
    9.1162   39.8713   14.6507 H   0  0  0  0  0  0  0  0  0  0  0  0
   11.4348   37.6797   16.5393 H   0  0  0  0  0  0  0  0  0  0  0  0
    9.6744   37.4340   16.1596 H   0  0  0  0  0  0  0  0  0  0  0  0
   11.4773   36.6801   10.3916 H   0  0  0  0  0  0  0  0  0  0  0  0
   10.0417   35.8357   11.1681 H   0  0  0  0  0  0  0  0  0  0  0  0
   10.1514   39.5266   11.1012 H   0  0  0  0  0  0  0  0  0  0  0  0
    8.5616   40.9231    9.7737 H   0  0  0  0  0  0  0  0  0  0  0  0
    7.0633   39.8518    8.0771 H   0  0  0  0  0  0  0  0  0  0  0  0
    6.2714   37.8883    6.9155 H   0  0  0  0  0  0  0  0  0  0  0  0
    6.3394   35.4169    6.5123 H   0  0  0  0  0  0  0  0  0  0  0  0
    7.9230   33.9806    7.8197 H   0  0  0  0  0  0  0  0  0  0  0  0
    9.4368   35.0065    9.5251 H   0  0  0  0  0  0  0  0  0  0  0  0
   13.0747   38.1615   10.5694 H   0  0  0  0  0  0  0  0  0  0  0  0
   14.9684   39.5657   11.4257 H   0  0  0  0  0  0  0  0  0  0  0  0
   13.1566   39.5935   15.3667 H   0  0  0  0  0  0  0  0  0  0  0  0
  1  2  1  0
  2  3  1  0
  3  4  1  0
  4  5  2  0
  4  6  1  0
  6  7  1  0
  6  8  1  0
  8  9  1  0
  9 10  2  0
 10 11  1  0
 11 12  2  0
 11 13  1  0
 10 14  1  0
 14 15  1  0
 15 16  1  0
 16 17  2  0
 17 18  1  0
 18 19  2  0
 19 20  1  0
 20 21  2  0
 21 22  1  0
 22 23  2  0
 23 24  1  0
 24 25  2  0
 14 26  1  0
 26 27  2  0
 27 28  1  0
 28 29  2  0
 29 30  1  0
 29 31  1  0
 31 32  2  0
 32  9  1  0
 25 16  1  0
 32 26  1  0
 25 20  1  0
  1 33  1  0
  1 34  1  0
  1 35  1  0
  2 36  1  0
  2 37  1  0
  7 38  1  0
  7 39  1  0
  7 40  1  0
  8 41  1  0
  8 42  1  0
 15 43  1  0
 15 44  1  0
 17 45  1  0
 18 46  1  0
 19 47  1  0
 21 48  1  0
 22 49  1  0
 23 50  1  0
 24 51  1  0
 27 52  1  0
 28 53  1  0
 31 54  1  0
M  CHG  1  13  -1
M  END
>  <meeko>  (445) 
{"free_energy": -6.18, "intermolecular_energy": -8.57, "internal_energy": -1.79, "cluster_size": 263, "cluster_id": 1, "rank_in_cluster": 202}

$$$$

     RDKit          3D

 54 57  0  0  0  0  0  0  0  0999 V2000
   12.3810   42.0910   10.3220 C   0  0  0  0  0  0  0  0  0  0  0  0
   12.1130   42.6900   11.7050 C   0  0  0  0  0  0  0  0  0  0  0  0
   10.8060   43.2410   11.7300 O   0  0  0  0  0  0  0  0  0  0  0  0
   10.3690   43.8950   12.8280 C   0  0  0  0  0  0  0  0  0  0  0  0
   11.1230   44.4170   13.6510 O   0  0  0  0  0  0  0  0  0  0  0  0
    8.9690   43.8910   12.8770 N   0  0  0  0  0  0  0  0  0  0  0  0
    8.1850   45.1310   12.8660 C   0  0  0  0  0  0  0  0  0  0  0  0
    8.2140   42.6350   12.9730 C   0  0  0  0  0  0  0  0  0  0  0  0
    9.1170   41.4250   13.0080 C   0  0  0  0  0  0  0  0  0  0  0  0
    9.8860   40.9480   14.0550 C   0  0  0  0  0  0  0  0  0  0  0  0
   10.0200   41.4640   15.4530 C   0  0  0  0  0  0  0  0  0  0  0  0
    8.9910   41.8350   16.0570 O   0  0  0  0  0  0  0  0  0  0  0  0
   11.1430   41.5420   15.9980 O   0  0  0  0  0  1  0  0  0  0  0  0
   10.6170   39.8270   13.6080 N   0  0  0  0  0  0  0  0  0  0  0  0
   11.5530   38.9890   14.3630 C   0  0  0  0  0  0  0  0  0  0  0  0
   10.9190   38.1800   15.5020 C   0  0  0  0  0  0  0  0  0  0  0  0
   11.1210   38.5500   16.8560 C   0  0  0  0  0  0  0  0  0  0  0  0
   10.5420   37.8110   17.9020 C   0  0  0  0  0  0  0  0  0  0  0  0
    9.7520   36.6870   17.6150 C   0  0  0  0  0  0  0  0  0  0  0  0
    9.5380   36.2980   16.2790 C   0  0  0  0  0  0  0  0  0  0  0  0
    8.7420   35.1650   16.0080 C   0  0  0  0  0  0  0  0  0  0  0  0
    8.5150   34.7580   14.6820 C   0  0  0  0  0  0  0  0  0  0  0  0
    9.0850   35.4850   13.6210 C   0  0  0  0  0  0  0  0  0  0  0  0
    9.8810   36.6160   13.8840 C   0  0  0  0  0  0  0  0  0  0  0  0
   10.1190   37.0400   15.2140 C   0  0  0  0  0  0  0  0  0  0  0  0
   10.3160   39.5860   12.2740 C   0  0  0  0  0  0  0  0  0  0  0  0
   10.7790   38.6110   11.3660 C   0  0  0  0  0  0  0  0  0  0  0  0
   10.2900   38.5910   10.0490 C   0  0  0  0  0  0  0  0  0  0  0  0
    9.3400   39.5440    9.6440 C   0  0  0  0  0  0  0  0  0  0  0  0
    8.8620   39.5280    8.3770 F   0  0  0  0  0  0  0  0  0  0  0  0
    8.8850   40.5170   10.5550 C   0  0  0  0  0  0  0  0  0  0  0  0
    9.3640   40.5670   11.8860 C   0  0  0  0  0  0  0  0  0  0  0  0
   12.8278   41.0923   10.4353 H   0  0  0  0  0  0  0  0  0  0  0  0
   11.4340   42.0084    9.7684 H   0  0  0  0  0  0  0  0  0  0  0  0
   13.0737   42.7420    9.7684 H   0  0  0  0  0  0  0  0  0  0  0  0
   12.1950   41.9028   12.4689 H   0  0  0  0  0  0  0  0  0  0  0  0
   12.8504   43.4788   11.9150 H   0  0  0  0  0  0  0  0  0  0  0  0
    7.9849   45.4475   13.9003 H   0  0  0  0  0  0  0  0  0  0  0  0
    8.7503   45.9176   12.3447 H   0  0  0  0  0  0  0  0  0  0  0  0
    7.2320   44.9577   12.3447 H   0  0  0  0  0  0  0  0  0  0  0  0
    7.6117   42.6537   13.8933 H   0  0  0  0  0  0  0  0  0  0  0  0
    7.5785   42.5550   12.0787 H   0  0  0  0  0  0  0  0  0  0  0  0
   12.0220   38.2829   13.6619 H   0  0  0  0  0  0  0  0  0  0  0  0
   12.2718   39.6755   14.8342 H   0  0  0  0  0  0  0  0  0  0  0  0
   11.7400   39.4284   17.0911 H   0  0  0  0  0  0  0  0  0  0  0  0
   10.7081   38.1138   18.9464 H   0  0  0  0  0  0  0  0  0  0  0  0
    9.2996   36.1095   18.4347 H   0  0  0  0  0  0  0  0  0  0  0  0
    8.2969   34.5975   16.8385 H   0  0  0  0  0  0  0  0  0  0  0  0
    7.8939   33.8742   14.4746 H   0  0  0  0  0  0  0  0  0  0  0  0
    8.9081   35.1687   12.5824 H   0  0  0  0  0  0  0  0  0  0  0  0
   10.3230   37.1766   13.0471 H   0  0  0  0  0  0  0  0  0  0  0  0
   11.5222   37.8670   11.6887 H   0  0  0  0  0  0  0  0  0  0  0  0
   10.6493   37.8325    9.3379 H   0  0  0  0  0  0  0  0  0  0  0  0
    8.1398   41.2555   10.2243 H   0  0  0  0  0  0  0  0  0  0  0  0
  1  2  1  0
  2  3  1  0
  3  4  1  0
  4  5  2  0
  4  6  1  0
  6  7  1  0
  6  8  1  0
  8  9  1  0
  9 10  2  0
 10 11  1  0
 11 12  2  0
 11 13  1  0
 10 14  1  0
 14 15  1  0
 15 16  1  0
 16 17  2  0
 17 18  1  0
 18 19  2  0
 19 20  1  0
 20 21  2  0
 21 22  1  0
 22 23  2  0
 23 24  1  0
 24 25  2  0
 14 26  1  0
 26 27  2  0
 27 28  1  0
 28 29  2  0
 29 30  1  0
 29 31  1  0
 31 32  2  0
 32  9  1  0
 25 16  1  0
 32 26  1  0
 25 20  1  0
  1 33  1  0
  1 34  1  0
  1 35  1  0
  2 36  1  0
  2 37  1  0
  7 38  1  0
  7 39  1  0
  7 40  1  0
  8 41  1  0
  8 42  1  0
 15 43  1  0
 15 44  1  0
 17 45  1  0
 18 46  1  0
 19 47  1  0
 21 48  1  0
 22 49  1  0
 23 50  1  0
 24 51  1  0
 27 52  1  0
 28 53  1  0
 31 54  1  0
M  CHG  1  13  -1
M  END
>  <meeko>  (446) 
{"free_energy": -4.46, "intermolecular_energy": -6.85, "internal_energy": -2.47, "cluster_size": 121, "cluster_id": 34, "rank_in_cluster": 116}

$$$$

     RDKit          3D

 54 57  0  0  0  0  0  0  0  0999 V2000
   12.7620   35.5950   16.3840 C   0  0  0  0  0  0  0  0  0  0  0  0
   12.8890   37.0150   16.9420 C   0  0  0  0  0  0  0  0  0  0  0  0
   12.7900   37.9460   15.8770 O   0  0  0  0  0  0  0  0  0  0  0  0
   11.6700   37.9960   15.1240 C   0  0  0  0  0  0  0  0  0  0  0  0
   11.5070   37.3230   14.1050 O   0  0  0  0  0  0  0  0  0  0  0  0
   10.7490   38.8980   15.6730 N   0  0  0  0  0  0  0  0  0  0  0  0
    9.9630   39.8150   14.8390 C   0  0  0  0  0  0  0  0  0  0  0  0
   10.5450   38.9910   17.1240 C   0  0  0  0  0  0  0  0  0  0  0  0
    9.5000   38.0190   17.6190 C   0  0  0  0  0  0  0  0  0  0  0  0
    8.6890   38.1130   18.7360 C   0  0  0  0  0  0  0  0  0  0  0  0
    8.5850   39.2080   19.7510 C   0  0  0  0  0  0  0  0  0  0  0  0
    7.7900   40.1480   19.5400 O   0  0  0  0  0  0  0  0  0  0  0  0
    9.2960   39.1910   20.7800 O   0  0  0  0  0  1  0  0  0  0  0  0
    7.9120   36.9390   18.8330 N   0  0  0  0  0  0  0  0  0  0  0  0
    6.9070   36.5930   19.8430 C   0  0  0  0  0  0  0  0  0  0  0  0
    5.5820   37.3580   19.7220 C   0  0  0  0  0  0  0  0  0  0  0  0
    5.2230   38.3430   20.6760 C   0  0  0  0  0  0  0  0  0  0  0  0
    4.0100   39.0460   20.5690 C   0  0  0  0  0  0  0  0  0  0  0  0
    3.1320   38.7750   19.5080 C   0  0  0  0  0  0  0  0  0  0  0  0
    3.4660   37.7990   18.5480 C   0  0  0  0  0  0  0  0  0  0  0  0
    2.5720   37.5400   17.4890 C   0  0  0  0  0  0  0  0  0  0  0  0
    2.8830   36.5700   16.5200 C   0  0  0  0  0  0  0  0  0  0  0  0
    4.0920   35.8570   16.6080 C   0  0  0  0  0  0  0  0  0  0  0  0
    4.9890   36.1110   17.6640 C   0  0  0  0  0  0  0  0  0  0  0  0
    4.6910   37.0850   18.6490 C   0  0  0  0  0  0  0  0  0  0  0  0
    8.2260   36.0930   17.7780 C   0  0  0  0  0  0  0  0  0  0  0  0
    7.7530   34.8120   17.4270 C   0  0  0  0  0  0  0  0  0  0  0  0
    8.2460   34.1730   16.2770 C   0  0  0  0  0  0  0  0  0  0  0  0
    9.2100   34.8170   15.4810 C   0  0  0  0  0  0  0  0  0  0  0  0
    9.6870   34.2090   14.3700 F   0  0  0  0  0  0  0  0  0  0  0  0
    9.6800   36.0950   15.8400 C   0  0  0  0  0  0  0  0  0  0  0  0
    9.2070   36.7610   16.9970 C   0  0  0  0  0  0  0  0  0  0  0  0
   12.6979   34.8784   17.2161 H   0  0  0  0  0  0  0  0  0  0  0  0
   11.8538   35.5232   15.7675 H   0  0  0  0  0  0  0  0  0  0  0  0
   13.6430   35.3631   15.7675 H   0  0  0  0  0  0  0  0  0  0  0  0
   12.0825   37.1987   17.6672 H   0  0  0  0  0  0  0  0  0  0  0  0
   13.8616   37.1292   17.4429 H   0  0  0  0  0  0  0  0  0  0  0  0
    9.3831   40.4915   15.4840 H   0  0  0  0  0  0  0  0  0  0  0  0
   10.6403   40.4049   14.2040 H   0  0  0  0  0  0  0  0  0  0  0  0
    9.2765   39.2359   14.2040 H   0  0  0  0  0  0  0  0  0  0  0  0
   11.4975   38.7744   17.6298 H   0  0  0  0  0  0  0  0  0  0  0  0
   10.1926   40.0082   17.3500 H   0  0  0  0  0  0  0  0  0  0  0  0
    6.6905   35.5180   19.7559 H   0  0  0  0  0  0  0  0  0  0  0  0
    7.3375   36.8720   20.8160 H   0  0  0  0  0  0  0  0  0  0  0  0
    5.9034   38.5606   21.5124 H   0  0  0  0  0  0  0  0  0  0  0  0
    3.7490   39.8088   21.3173 H   0  0  0  0  0  0  0  0  0  0  0  0
    2.1828   39.3247   19.4258 H   0  0  0  0  0  0  0  0  0  0  0  0
    1.6272   38.0992   17.4206 H   0  0  0  0  0  0  0  0  0  0  0  0
    2.1829   36.3694   15.6956 H   0  0  0  0  0  0  0  0  0  0  0  0
    4.3379   35.0987   15.8500 H   0  0  0  0  0  0  0  0  0  0  0  0
    5.9314   35.5469   17.7246 H   0  0  0  0  0  0  0  0  0  0  0  0
    6.9985   34.3132   18.0531 H   0  0  0  0  0  0  0  0  0  0  0  0
    7.8796   33.1734   16.0005 H   0  0  0  0  0  0  0  0  0  0  0  0
   10.4324   36.5878   15.2067 H   0  0  0  0  0  0  0  0  0  0  0  0
  1  2  1  0
  2  3  1  0
  3  4  1  0
  4  5  2  0
  4  6  1  0
  6  7  1  0
  6  8  1  0
  8  9  1  0
  9 10  2  0
 10 11  1  0
 11 12  2  0
 11 13  1  0
 10 14  1  0
 14 15  1  0
 15 16  1  0
 16 17  2  0
 17 18  1  0
 18 19  2  0
 19 20  1  0
 20 21  2  0
 21 22  1  0
 22 23  2  0
 23 24  1  0
 24 25  2  0
 14 26  1  0
 26 27  2  0
 27 28  1  0
 28 29  2  0
 29 30  1  0
 29 31  1  0
 31 32  2  0
 32  9  1  0
 25 16  1  0
 32 26  1  0
 25 20  1  0
  1 33  1  0
  1 34  1  0
  1 35  1  0
  2 36  1  0
  2 37  1  0
  7 38  1  0
  7 39  1  0
  7 40  1  0
  8 41  1  0
  8 42  1  0
 15 43  1  0
 15 44  1  0
 17 45  1  0
 18 46  1  0
 19 47  1  0
 21 48  1  0
 22 49  1  0
 23 50  1  0
 24 51  1  0
 27 52  1  0
 28 53  1  0
 31 54  1  0
M  CHG  1  13  -1
M  END
>  <meeko>  (447) 
{"free_energy": -5.06, "intermolecular_energy": -7.44, "internal_energy": -1.69, "cluster_size": 136, "cluster_id": 17, "rank_in_cluster": 127}

$$$$

     RDKit          3D

 54 57  0  0  0  0  0  0  0  0999 V2000
   12.5260   37.8330   10.3800 C   0  0  0  0  0  0  0  0  0  0  0  0
   11.8710   38.9950    9.6300 C   0  0  0  0  0  0  0  0  0  0  0  0
   11.4830   39.9920   10.5610 O   0  0  0  0  0  0  0  0  0  0  0  0
   10.6210   40.9640   10.1920 C   0  0  0  0  0  0  0  0  0  0  0  0
   10.6870   41.5540    9.1120 O   0  0  0  0  0  0  0  0  0  0  0  0
    9.6680   41.1830   11.1950 N   0  0  0  0  0  0  0  0  0  0  0  0
    8.2760   41.5310   10.8860 C   0  0  0  0  0  0  0  0  0  0  0  0
   10.0260   41.1020   12.6170 C   0  0  0  0  0  0  0  0  0  0  0  0
   10.0760   39.6770   13.1150 C   0  0  0  0  0  0  0  0  0  0  0  0
   10.6290   39.1860   14.2840 C   0  0  0  0  0  0  0  0  0  0  0  0
   11.3020   39.9180   15.4020 C   0  0  0  0  0  0  0  0  0  0  0  0
   10.6160   40.6750   16.1220 O   0  0  0  0  0  0  0  0  0  0  0  0
   12.5300   39.7890   15.5990 O   0  0  0  0  0  1  0  0  0  0  0  0
   10.4960   37.7810   14.2950 N   0  0  0  0  0  0  0  0  0  0  0  0
   10.9230   36.8330   15.3290 C   0  0  0  0  0  0  0  0  0  0  0  0
   10.2010   36.9800   16.6750 C   0  0  0  0  0  0  0  0  0  0  0  0
   10.6780   37.8810   17.6600 C   0  0  0  0  0  0  0  0  0  0  0  0
   10.0200   38.0180   18.8940 C   0  0  0  0  0  0  0  0  0  0  0  0
    8.8740   37.2550   19.1680 C   0  0  0  0  0  0  0  0  0  0  0  0
    8.3820   36.3520   18.2070 C   0  0  0  0  0  0  0  0  0  0  0  0
    7.2300   35.5930   18.4990 C   0  0  0  0  0  0  0  0  0  0  0  0
    6.7210   34.6840   17.5540 C   0  0  0  0  0  0  0  0  0  0  0  0
    7.3640   34.5330   16.3130 C   0  0  0  0  0  0  0  0  0  0  0  0
    8.5150   35.2870   16.0150 C   0  0  0  0  0  0  0  0  0  0  0  0
    9.0410   36.2070   16.9550 C   0  0  0  0  0  0  0  0  0  0  0  0
    9.8570   37.3730   13.1310 C   0  0  0  0  0  0  0  0  0  0  0  0
    9.5010   36.0950   12.6530 C   0  0  0  0  0  0  0  0  0  0  0  0
    8.8390   35.9670   11.4200 C   0  0  0  0  0  0  0  0  0  0  0  0
    8.5350   37.1160   10.6710 C   0  0  0  0  0  0  0  0  0  0  0  0
    7.8940   37.0000    9.4830 F   0  0  0  0  0  0  0  0  0  0  0  0
    8.8980   38.3890   11.1530 C   0  0  0  0  0  0  0  0  0  0  0  0
    9.5710   38.5490   12.3880 C   0  0  0  0  0  0  0  0  0  0  0  0
   12.4334   37.9974   11.4637 H   0  0  0  0  0  0  0  0  0  0  0  0
   12.0253   36.8922   10.1077 H   0  0  0  0  0  0  0  0  0  0  0  0
   13.5901   37.7742   10.1077 H   0  0  0  0  0  0  0  0  0  0  0  0
   12.5882   39.4207    8.9127 H   0  0  0  0  0  0  0  0  0  0  0  0
   10.9858   38.6320    9.0872 H   0  0  0  0  0  0  0  0  0  0  0  0
    7.7164   41.6709   11.8227 H   0  0  0  0  0  0  0  0  0  0  0  0
    8.2520   42.4628   10.3019 H   0  0  0  0  0  0  0  0  0  0  0  0
    7.8163   40.7201   10.3019 H   0  0  0  0  0  0  0  0  0  0  0  0
   11.0152   41.5615   12.7595 H   0  0  0  0  0  0  0  0  0  0  0  0
    9.2508   41.6318   13.1900 H   0  0  0  0  0  0  0  0  0  0  0  0
   10.7440   35.8144   14.9542 H   0  0  0  0  0  0  0  0  0  0  0  0
   11.9850   37.0440   15.5228 H   0  0  0  0  0  0  0  0  0  0  0  0
   11.5765   38.4817   17.4553 H   0  0  0  0  0  0  0  0  0  0  0  0
   10.4032   38.7236   19.6458 H   0  0  0  0  0  0  0  0  0  0  0  0
    8.3601   37.3629   20.1346 H   0  0  0  0  0  0  0  0  0  0  0  0
    6.7272   35.7123   19.4701 H   0  0  0  0  0  0  0  0  0  0  0  0
    5.8225   34.0930   17.7853 H   0  0  0  0  0  0  0  0  0  0  0  0
    6.9665   33.8234   15.5724 H   0  0  0  0  0  0  0  0  0  0  0  0
    9.0113   35.1603   15.0415 H   0  0  0  0  0  0  0  0  0  0  0  0
    9.7412   35.1993   13.2446 H   0  0  0  0  0  0  0  0  0  0  0  0
    8.5602   34.9719   11.0431 H   0  0  0  0  0  0  0  0  0  0  0  0
    8.6527   39.2795   10.5557 H   0  0  0  0  0  0  0  0  0  0  0  0
  1  2  1  0
  2  3  1  0
  3  4  1  0
  4  5  2  0
  4  6  1  0
  6  7  1  0
  6  8  1  0
  8  9  1  0
  9 10  2  0
 10 11  1  0
 11 12  2  0
 11 13  1  0
 10 14  1  0
 14 15  1  0
 15 16  1  0
 16 17  2  0
 17 18  1  0
 18 19  2  0
 19 20  1  0
 20 21  2  0
 21 22  1  0
 22 23  2  0
 23 24  1  0
 24 25  2  0
 14 26  1  0
 26 27  2  0
 27 28  1  0
 28 29  2  0
 29 30  1  0
 29 31  1  0
 31 32  2  0
 32  9  1  0
 25 16  1  0
 32 26  1  0
 25 20  1  0
  1 33  1  0
  1 34  1  0
  1 35  1  0
  2 36  1  0
  2 37  1  0
  7 38  1  0
  7 39  1  0
  7 40  1  0
  8 41  1  0
  8 42  1  0
 15 43  1  0
 15 44  1  0
 17 45  1  0
 18 46  1  0
 19 47  1  0
 21 48  1  0
 22 49  1  0
 23 50  1  0
 24 51  1  0
 27 52  1  0
 28 53  1  0
 31 54  1  0
M  CHG  1  13  -1
M  END
>  <meeko>  (448) 
{"free_energy": -5.2, "intermolecular_energy": -7.59, "internal_energy": -2.07, "cluster_size": 10, "cluster_id": 82, "rank_in_cluster": 6}

$$$$

     RDKit          3D

 54 57  0  0  0  0  0  0  0  0999 V2000
    8.9730   38.0260   20.1300 C   0  0  0  0  0  0  0  0  0  0  0  0
    7.8580   38.2220   19.1000 C   0  0  0  0  0  0  0  0  0  0  0  0
    7.9610   39.5220   18.5430 O   0  0  0  0  0  0  0  0  0  0  0  0
    9.1420   40.1760   18.5640 C   0  0  0  0  0  0  0  0  0  0  0  0
    9.4870   40.9230   19.4810 O   0  0  0  0  0  0  0  0  0  0  0  0
    9.8910   39.8740   17.4190 N   0  0  0  0  0  0  0  0  0  0  0  0
    9.9160   40.7580   16.2480 C   0  0  0  0  0  0  0  0  0  0  0  0
   10.6710   38.6330   17.3240 C   0  0  0  0  0  0  0  0  0  0  0  0
   10.6090   38.0230   15.9430 C   0  0  0  0  0  0  0  0  0  0  0  0
   11.1680   38.4860   14.7650 C   0  0  0  0  0  0  0  0  0  0  0  0
   12.0180   39.6930   14.5220 C   0  0  0  0  0  0  0  0  0  0  0  0
   13.0610   39.8380   15.1940 O   0  0  0  0  0  0  0  0  0  0  0  0
   11.6790   40.5500   13.6770 O   0  0  0  0  0  1  0  0  0  0  0  0
   10.7940   37.6210   13.7140 N   0  0  0  0  0  0  0  0  0  0  0  0
   11.1540   37.7030   12.2960 C   0  0  0  0  0  0  0  0  0  0  0  0
   10.0780   38.3180   11.3910 C   0  0  0  0  0  0  0  0  0  0  0  0
    9.7970   39.7070   11.4380 C   0  0  0  0  0  0  0  0  0  0  0  0
    8.8130   40.2750   10.6110 C   0  0  0  0  0  0  0  0  0  0  0  0
    8.0880   39.4640    9.7230 C   0  0  0  0  0  0  0  0  0  0  0  0
    8.3480   38.0810    9.6590 C   0  0  0  0  0  0  0  0  0  0  0  0
    7.6110   37.2820    8.7610 C   0  0  0  0  0  0  0  0  0  0  0  0
    7.8520   35.8990    8.6800 C   0  0  0  0  0  0  0  0  0  0  0  0
    8.8340   35.3120    9.4980 C   0  0  0  0  0  0  0  0  0  0  0  0
    9.5730   36.1050   10.3970 C   0  0  0  0  0  0  0  0  0  0  0  0
    9.3430   37.4990   10.4910 C   0  0  0  0  0  0  0  0  0  0  0  0
    9.9940   36.6050   14.2200 C   0  0  0  0  0  0  0  0  0  0  0  0
    9.3570   35.5120   13.5970 C   0  0  0  0  0  0  0  0  0  0  0  0
    8.5990   34.6120   14.3650 C   0  0  0  0  0  0  0  0  0  0  0  0
    8.4810   34.8070   15.7520 C   0  0  0  0  0  0  0  0  0  0  0  0
    7.7550   33.9420   16.4980 F   0  0  0  0  0  0  0  0  0  0  0  0
    9.1170   35.9040   16.3660 C   0  0  0  0  0  0  0  0  0  0  0  0
    9.8820   36.8310   15.6180 C   0  0  0  0  0  0  0  0  0  0  0  0
    8.5527   38.0999   21.1439 H   0  0  0  0  0  0  0  0  0  0  0  0
    9.4283   37.0340   19.9932 H   0  0  0  0  0  0  0  0  0  0  0  0
    9.7393   38.8032   19.9932 H   0  0  0  0  0  0  0  0  0  0  0  0
    7.9578   37.4711   18.3024 H   0  0  0  0  0  0  0  0  0  0  0  0
    6.8792   38.1056   19.5883 H   0  0  0  0  0  0  0  0  0  0  0  0
    9.9456   41.8062   16.5804 H   0  0  0  0  0  0  0  0  0  0  0  0
   10.8083   40.5399   15.6429 H   0  0  0  0  0  0  0  0  0  0  0  0
    9.0128   40.5906   15.6429 H   0  0  0  0  0  0  0  0  0  0  0  0
   11.7208   38.8552   17.5661 H   0  0  0  0  0  0  0  0  0  0  0  0
   10.2409   37.9093   18.0320 H   0  0  0  0  0  0  0  0  0  0  0  0
   12.0640   38.3148   12.2093 H   0  0  0  0  0  0  0  0  0  0  0  0
   11.2914   36.6672   11.9521 H   0  0  0  0  0  0  0  0  0  0  0  0
   10.3578   40.3498   12.1324 H   0  0  0  0  0  0  0  0  0  0  0  0
    8.6106   41.3551   10.6593 H   0  0  0  0  0  0  0  0  0  0  0  0
    7.3167   39.9089    9.0771 H   0  0  0  0  0  0  0  0  0  0  0  0
    6.8441   37.7426    8.1209 H   0  0  0  0  0  0  0  0  0  0  0  0
    7.2744   35.2783    7.9792 H   0  0  0  0  0  0  0  0  0  0  0  0
    9.0253   34.2306    9.4354 H   0  0  0  0  0  0  0  0  0  0  0  0
   10.3378   35.6361   11.0336 H   0  0  0  0  0  0  0  0  0  0  0  0
    9.4534   35.3642   12.5112 H   0  0  0  0  0  0  0  0  0  0  0  0
    8.1001   33.7584   13.8828 H   0  0  0  0  0  0  0  0  0  0  0  0
    9.0168   36.0435   17.4525 H   0  0  0  0  0  0  0  0  0  0  0  0
  1  2  1  0
  2  3  1  0
  3  4  1  0
  4  5  2  0
  4  6  1  0
  6  7  1  0
  6  8  1  0
  8  9  1  0
  9 10  2  0
 10 11  1  0
 11 12  2  0
 11 13  1  0
 10 14  1  0
 14 15  1  0
 15 16  1  0
 16 17  2  0
 17 18  1  0
 18 19  2  0
 19 20  1  0
 20 21  2  0
 21 22  1  0
 22 23  2  0
 23 24  1  0
 24 25  2  0
 14 26  1  0
 26 27  2  0
 27 28  1  0
 28 29  2  0
 29 30  1  0
 29 31  1  0
 31 32  2  0
 32  9  1  0
 25 16  1  0
 32 26  1  0
 25 20  1  0
  1 33  1  0
  1 34  1  0
  1 35  1  0
  2 36  1  0
  2 37  1  0
  7 38  1  0
  7 39  1  0
  7 40  1  0
  8 41  1  0
  8 42  1  0
 15 43  1  0
 15 44  1  0
 17 45  1  0
 18 46  1  0
 19 47  1  0
 21 48  1  0
 22 49  1  0
 23 50  1  0
 24 51  1  0
 27 52  1  0
 28 53  1  0
 31 54  1  0
M  CHG  1  13  -1
M  END
>  <meeko>  (449) 
{"free_energy": -6.08, "intermolecular_energy": -8.47, "internal_energy": -1.66, "cluster_size": 326, "cluster_id": 11, "rank_in_cluster": 121}

$$$$

     RDKit          3D

 54 57  0  0  0  0  0  0  0  0999 V2000
    6.9050   42.3190   19.2260 C   0  0  0  0  0  0  0  0  0  0  0  0
    7.5430   41.2480   20.1140 C   0  0  0  0  0  0  0  0  0  0  0  0
    8.4670   40.4940   19.3460 O   0  0  0  0  0  0  0  0  0  0  0  0
    9.3280   39.6540   19.9580 C   0  0  0  0  0  0  0  0  0  0  0  0
   10.0190   39.9780   20.9250 O   0  0  0  0  0  0  0  0  0  0  0  0
    9.3080   38.3950   19.3430 N   0  0  0  0  0  0  0  0  0  0  0  0
   10.2620   37.3380   19.6970 C   0  0  0  0  0  0  0  0  0  0  0  0
    8.3390   38.0800   18.2850 C   0  0  0  0  0  0  0  0  0  0  0  0
    8.9940   37.9500   16.9300 C   0  0  0  0  0  0  0  0  0  0  0  0
    9.7000   38.9000   16.2140 C   0  0  0  0  0  0  0  0  0  0  0  0
   10.0490   40.3080   16.5830 C   0  0  0  0  0  0  0  0  0  0  0  0
    9.2390   41.2190   16.3070 O   0  0  0  0  0  0  0  0  0  0  0  0
   11.1380   40.5690   17.1390 O   0  0  0  0  0  1  0  0  0  0  0  0
   10.0710   38.3480   14.9690 N   0  0  0  0  0  0  0  0  0  0  0  0
   10.8360   38.9740   13.8870 C   0  0  0  0  0  0  0  0  0  0  0  0
   10.0020   39.8130   12.9100 C   0  0  0  0  0  0  0  0  0  0  0  0
    9.7090   41.1720   13.1860 C   0  0  0  0  0  0  0  0  0  0  0  0
    8.9450   41.9440   12.2940 C   0  0  0  0  0  0  0  0  0  0  0  0
    8.4580   41.3710   11.1080 C   0  0  0  0  0  0  0  0  0  0  0  0
    8.7350   40.0230   10.8120 C   0  0  0  0  0  0  0  0  0  0  0  0
    8.2370   39.4630    9.6170 C   0  0  0  0  0  0  0  0  0  0  0  0
    8.5010   38.1180    9.3000 C   0  0  0  0  0  0  0  0  0  0  0  0
    9.2640   37.3300   10.1800 C   0  0  0  0  0  0  0  0  0  0  0  0
    9.7620   37.8820   11.3750 C   0  0  0  0  0  0  0  0  0  0  0  0
    9.5070   39.2350   11.7090 C   0  0  0  0  0  0  0  0  0  0  0  0
    9.6010   37.0440   14.8890 C   0  0  0  0  0  0  0  0  0  0  0  0
    9.6880   36.0750   13.8680 C   0  0  0  0  0  0  0  0  0  0  0  0
    9.1200   34.8040   14.0570 C   0  0  0  0  0  0  0  0  0  0  0  0
    8.4680   34.5060   15.2660 C   0  0  0  0  0  0  0  0  0  0  0  0
    7.9210   33.2820   15.4570 F   0  0  0  0  0  0  0  0  0  0  0  0
    8.3820   35.4800   16.2800 C   0  0  0  0  0  0  0  0  0  0  0  0
    8.9390   36.7710   16.1160 C   0  0  0  0  0  0  0  0  0  0  0  0
    6.4442   43.0925   19.8580 H   0  0  0  0  0  0  0  0  0  0  0  0
    7.6777   42.7768   18.5909 H   0  0  0  0  0  0  0  0  0  0  0  0
    6.1345   41.8575   18.5909 H   0  0  0  0  0  0  0  0  0  0  0  0
    8.0681   41.7299   20.9519 H   0  0  0  0  0  0  0  0  0  0  0  0
    6.7614   40.5824   20.5091 H   0  0  0  0  0  0  0  0  0  0  0  0
   10.3328   37.2596   20.7919 H   0  0  0  0  0  0  0  0  0  0  0  0
    9.9175   36.3792   19.2822 H   0  0  0  0  0  0  0  0  0  0  0  0
   11.2510   37.5827   19.2822 H   0  0  0  0  0  0  0  0  0  0  0  0
    7.8427   37.1296   18.5310 H   0  0  0  0  0  0  0  0  0  0  0  0
    7.6164   38.9077   18.2322 H   0  0  0  0  0  0  0  0  0  0  0  0
   11.5947   39.6295   14.3394 H   0  0  0  0  0  0  0  0  0  0  0  0
   11.2679   38.1517   13.2977 H   0  0  0  0  0  0  0  0  0  0  0  0
   10.0854   41.6296   14.1128 H   0  0  0  0  0  0  0  0  0  0  0  0
    8.7284   42.9975   12.5250 H   0  0  0  0  0  0  0  0  0  0  0  0
    7.8600   41.9756   10.4103 H   0  0  0  0  0  0  0  0  0  0  0  0
    7.6397   40.0805    8.9301 H   0  0  0  0  0  0  0  0  0  0  0  0
    8.1119   37.6842    8.3670 H   0  0  0  0  0  0  0  0  0  0  0  0
    9.4723   36.2784    9.9335 H   0  0  0  0  0  0  0  0  0  0  0  0
   10.3558   37.2560   12.0573 H   0  0  0  0  0  0  0  0  0  0  0  0
   10.2002   36.3142   12.9244 H   0  0  0  0  0  0  0  0  0  0  0  0
    9.1852   34.0458   13.2627 H   0  0  0  0  0  0  0  0  0  0  0  0
    7.8700   35.2316   17.2213 H   0  0  0  0  0  0  0  0  0  0  0  0
  1  2  1  0
  2  3  1  0
  3  4  1  0
  4  5  2  0
  4  6  1  0
  6  7  1  0
  6  8  1  0
  8  9  1  0
  9 10  2  0
 10 11  1  0
 11 12  2  0
 11 13  1  0
 10 14  1  0
 14 15  1  0
 15 16  1  0
 16 17  2  0
 17 18  1  0
 18 19  2  0
 19 20  1  0
 20 21  2  0
 21 22  1  0
 22 23  2  0
 23 24  1  0
 24 25  2  0
 14 26  1  0
 26 27  2  0
 27 28  1  0
 28 29  2  0
 29 30  1  0
 29 31  1  0
 31 32  2  0
 32  9  1  0
 25 16  1  0
 32 26  1  0
 25 20  1  0
  1 33  1  0
  1 34  1  0
  1 35  1  0
  2 36  1  0
  2 37  1  0
  7 38  1  0
  7 39  1  0
  7 40  1  0
  8 41  1  0
  8 42  1  0
 15 43  1  0
 15 44  1  0
 17 45  1  0
 18 46  1  0
 19 47  1  0
 21 48  1  0
 22 49  1  0
 23 50  1  0
 24 51  1  0
 27 52  1  0
 28 53  1  0
 31 54  1  0
M  CHG  1  13  -1
M  END
>  <meeko>  (450) 
{"free_energy": -5.32, "intermolecular_energy": -7.71, "internal_energy": -1.89, "cluster_size": 326, "cluster_id": 11, "rank_in_cluster": 251}

$$$$

     RDKit          3D

 54 57  0  0  0  0  0  0  0  0999 V2000
    7.6380   36.4590    8.6040 C   0  0  0  0  0  0  0  0  0  0  0  0
    7.5720   37.9250    9.0390 C   0  0  0  0  0  0  0  0  0  0  0  0
    8.4330   38.1220   10.1490 O   0  0  0  0  0  0  0  0  0  0  0  0
    9.7690   38.0000    9.9990 C   0  0  0  0  0  0  0  0  0  0  0  0
   10.3120   37.7750    8.9150 O   0  0  0  0  0  0  0  0  0  0  0  0
   10.4200   38.1710   11.2270 N   0  0  0  0  0  0  0  0  0  0  0  0
    9.6880   38.4740   12.4620 C   0  0  0  0  0  0  0  0  0  0  0  0
   11.8820   38.0830   11.3340 C   0  0  0  0  0  0  0  0  0  0  0  0
   12.5740   39.2770   10.7200 C   0  0  0  0  0  0  0  0  0  0  0  0
   12.0150   40.4440   10.2280 C   0  0  0  0  0  0  0  0  0  0  0  0
   10.5830   40.8750   10.1930 C   0  0  0  0  0  0  0  0  0  0  0  0
   10.0360   41.2290   11.2590 O   0  0  0  0  0  0  0  0  0  0  0  0
    9.9410   40.8620    9.1200 O   0  0  0  0  0  1  0  0  0  0  0  0
   13.0430   41.2490    9.6920 N   0  0  0  0  0  0  0  0  0  0  0  0
   12.9340   42.5730    9.0720 C   0  0  0  0  0  0  0  0  0  0  0  0
   12.9200   42.5670    7.5380 C   0  0  0  0  0  0  0  0  0  0  0  0
   13.4150   41.4560    6.8110 C   0  0  0  0  0  0  0  0  0  0  0  0
   13.4040   41.4470    5.4060 C   0  0  0  0  0  0  0  0  0  0  0  0
   12.9000   42.5510    4.7000 C   0  0  0  0  0  0  0  0  0  0  0  0
   12.4040   43.6680    5.3990 C   0  0  0  0  0  0  0  0  0  0  0  0
   11.9010   44.7680    4.6740 C   0  0  0  0  0  0  0  0  0  0  0  0
   11.4010   45.8940    5.3510 C   0  0  0  0  0  0  0  0  0  0  0  0
   11.4020   45.9220    6.7570 C   0  0  0  0  0  0  0  0  0  0  0  0
   11.9030   44.8270    7.4870 C   0  0  0  0  0  0  0  0  0  0  0  0
   12.4100   43.6840    6.8210 C   0  0  0  0  0  0  0  0  0  0  0  0
   14.2600   40.5960    9.8410 C   0  0  0  0  0  0  0  0  0  0  0  0
   15.5710   40.9560    9.4660 C   0  0  0  0  0  0  0  0  0  0  0  0
   16.6430   40.0940    9.7520 C   0  0  0  0  0  0  0  0  0  0  0  0
   16.4010   38.8760   10.4120 C   0  0  0  0  0  0  0  0  0  0  0  0
   17.4300   38.0430   10.6930 F   0  0  0  0  0  0  0  0  0  0  0  0
   15.0880   38.5220   10.7790 C   0  0  0  0  0  0  0  0  0  0  0  0
   13.9870   39.3670   10.4990 C   0  0  0  0  0  0  0  0  0  0  0  0
    7.6671   35.8134    9.4941 H   0  0  0  0  0  0  0  0  0  0  0  0
    6.7499   36.2146    8.0026 H   0  0  0  0  0  0  0  0  0  0  0  0
    8.5444   36.2954    8.0026 H   0  0  0  0  0  0  0  0  0  0  0  0
    7.8909   38.5702    8.2071 H   0  0  0  0  0  0  0  0  0  0  0  0
    6.5401   38.1801    9.3222 H   0  0  0  0  0  0  0  0  0  0  0  0
   10.3116   38.2159   13.3306 H   0  0  0  0  0  0  0  0  0  0  0  0
    9.4453   39.5465   12.4906 H   0  0  0  0  0  0  0  0  0  0  0  0
    8.7583   37.8868   12.4906 H   0  0  0  0  0  0  0  0  0  0  0  0
   12.1560   38.0235   12.3977 H   0  0  0  0  0  0  0  0  0  0  0  0
   12.2065   37.1866   10.7851 H   0  0  0  0  0  0  0  0  0  0  0  0
   12.0001   43.0381    9.4207 H   0  0  0  0  0  0  0  0  0  0  0  0
   13.8346   43.1294    9.3708 H   0  0  0  0  0  0  0  0  0  0  0  0
   13.8140   40.5872    7.3550 H   0  0  0  0  0  0  0  0  0  0  0  0
   13.7905   40.5745    4.8589 H   0  0  0  0  0  0  0  0  0  0  0  0
   12.8926   42.5432    3.6001 H   0  0  0  0  0  0  0  0  0  0  0  0
   11.8999   44.7449    3.5742 H   0  0  0  0  0  0  0  0  0  0  0  0
   11.0101   46.7508    4.7826 H   0  0  0  0  0  0  0  0  0  0  0  0
   11.0102   46.8020    7.2882 H   0  0  0  0  0  0  0  0  0  0  0  0
   11.9007   44.8595    8.5865 H   0  0  0  0  0  0  0  0  0  0  0  0
   15.7540   41.9103    8.9504 H   0  0  0  0  0  0  0  0  0  0  0  0
   17.6671   40.3706    9.4609 H   0  0  0  0  0  0  0  0  0  0  0  0
   14.9139   37.5665   11.2954 H   0  0  0  0  0  0  0  0  0  0  0  0
  1  2  1  0
  2  3  1  0
  3  4  1  0
  4  5  2  0
  4  6  1  0
  6  7  1  0
  6  8  1  0
  8  9  1  0
  9 10  2  0
 10 11  1  0
 11 12  2  0
 11 13  1  0
 10 14  1  0
 14 15  1  0
 15 16  1  0
 16 17  2  0
 17 18  1  0
 18 19  2  0
 19 20  1  0
 20 21  2  0
 21 22  1  0
 22 23  2  0
 23 24  1  0
 24 25  2  0
 14 26  1  0
 26 27  2  0
 27 28  1  0
 28 29  2  0
 29 30  1  0
 29 31  1  0
 31 32  2  0
 32  9  1  0
 25 16  1  0
 32 26  1  0
 25 20  1  0
  1 33  1  0
  1 34  1  0
  1 35  1  0
  2 36  1  0
  2 37  1  0
  7 38  1  0
  7 39  1  0
  7 40  1  0
  8 41  1  0
  8 42  1  0
 15 43  1  0
 15 44  1  0
 17 45  1  0
 18 46  1  0
 19 47  1  0
 21 48  1  0
 22 49  1  0
 23 50  1  0
 24 51  1  0
 27 52  1  0
 28 53  1  0
 31 54  1  0
M  CHG  1  13  -1
M  END
>  <meeko>  (451) 
{"free_energy": -5.22, "intermolecular_energy": -7.6, "internal_energy": -1.53, "cluster_size": 13, "cluster_id": 74, "rank_in_cluster": 4}

$$$$

     RDKit          3D

 54 57  0  0  0  0  0  0  0  0999 V2000
    8.5550   41.4450   11.1090 C   0  0  0  0  0  0  0  0  0  0  0  0
    8.3070   42.5610   12.1260 C   0  0  0  0  0  0  0  0  0  0  0  0
    8.8110   42.1610   13.3900 O   0  0  0  0  0  0  0  0  0  0  0  0
    8.7070   42.9880   14.4530 C   0  0  0  0  0  0  0  0  0  0  0  0
    7.7360   42.9980   15.2110 O   0  0  0  0  0  0  0  0  0  0  0  0
    9.8430   43.8010   14.5560 N   0  0  0  0  0  0  0  0  0  0  0  0
    9.7550   45.2650   14.5780 C   0  0  0  0  0  0  0  0  0  0  0  0
   11.1910   43.2210   14.6170 C   0  0  0  0  0  0  0  0  0  0  0  0
   11.1720   41.7720   15.0430 C   0  0  0  0  0  0  0  0  0  0  0  0
   11.6900   40.6690   14.3880 C   0  0  0  0  0  0  0  0  0  0  0  0
   12.4420   40.5930   13.0970 C   0  0  0  0  0  0  0  0  0  0  0  0
   12.1190   41.3630   12.1670 O   0  0  0  0  0  0  0  0  0  0  0  0
   13.3640   39.7620   12.9450 O   0  0  0  0  0  1  0  0  0  0  0  0
   11.3800   39.5110   15.1330 N   0  0  0  0  0  0  0  0  0  0  0  0
   11.7280   38.1180   14.8370 C   0  0  0  0  0  0  0  0  0  0  0  0
   10.6120   37.3010   14.1750 C   0  0  0  0  0  0  0  0  0  0  0  0
   10.0190   37.7310   12.9610 C   0  0  0  0  0  0  0  0  0  0  0  0
    8.9970   36.9850   12.3500 C   0  0  0  0  0  0  0  0  0  0  0  0
    8.5450   35.7950   12.9440 C   0  0  0  0  0  0  0  0  0  0  0  0
    9.1160   35.3480   14.1500 C   0  0  0  0  0  0  0  0  0  0  0  0
    8.6490   34.1510   14.7320 C   0  0  0  0  0  0  0  0  0  0  0  0
    9.2050   33.6850   15.9370 C   0  0  0  0  0  0  0  0  0  0  0  0
   10.2300   34.4170   16.5630 C   0  0  0  0  0  0  0  0  0  0  0  0
   10.7000   35.6130   15.9880 C   0  0  0  0  0  0  0  0  0  0  0  0
   10.1520   36.0960   14.7740 C   0  0  0  0  0  0  0  0  0  0  0  0
   10.6630   39.8740   16.2650 C   0  0  0  0  0  0  0  0  0  0  0  0
   10.1100   39.1080   17.3130 C   0  0  0  0  0  0  0  0  0  0  0  0
    9.4270   39.7460   18.3610 C   0  0  0  0  0  0  0  0  0  0  0  0
    9.2990   41.1460   18.3600 C   0  0  0  0  0  0  0  0  0  0  0  0
    8.6440   41.7670   19.3700 F   0  0  0  0  0  0  0  0  0  0  0  0
    9.8500   41.9030   17.3090 C   0  0  0  0  0  0  0  0  0  0  0  0
   10.5390   41.2890   16.2350 C   0  0  0  0  0  0  0  0  0  0  0  0
    8.7640   40.5047   11.6402 H   0  0  0  0  0  0  0  0  0  0  0  0
    7.6629   41.3192   10.4779 H   0  0  0  0  0  0  0  0  0  0  0  0
    9.4164   41.7088   10.4779 H   0  0  0  0  0  0  0  0  0  0  0  0
    8.8198   43.4775   11.7988 H   0  0  0  0  0  0  0  0  0  0  0  0
    7.2273   42.7566   12.2039 H   0  0  0  0  0  0  0  0  0  0  0  0
    9.7339   45.6154   15.6205 H   0  0  0  0  0  0  0  0  0  0  0  0
   10.6291   45.6926   14.0650 H   0  0  0  0  0  0  0  0  0  0  0  0
    8.8360   45.5848   14.0650 H   0  0  0  0  0  0  0  0  0  0  0  0
   11.6518   43.2909   13.6206 H   0  0  0  0  0  0  0  0  0  0  0  0
   11.7667   43.7847   15.3658 H   0  0  0  0  0  0  0  0  0  0  0  0
   12.5971   38.1187   14.1627 H   0  0  0  0  0  0  0  0  0  0  0  0
   11.9293   37.6375   15.8058 H   0  0  0  0  0  0  0  0  0  0  0  0
   10.3644   38.6632   12.4901 H   0  0  0  0  0  0  0  0  0  0  0  0
    8.5509   37.3328   11.4066 H   0  0  0  0  0  0  0  0  0  0  0  0
    7.7440   35.2120   12.4660 H   0  0  0  0  0  0  0  0  0  0  0  0
    7.8470   33.5798   14.2416 H   0  0  0  0  0  0  0  0  0  0  0  0
    8.8393   32.7509   16.3884 H   0  0  0  0  0  0  0  0  0  0  0  0
   10.6660   34.0536   17.5053 H   0  0  0  0  0  0  0  0  0  0  0  0
   11.5011   36.1784   16.4865 H   0  0  0  0  0  0  0  0  0  0  0  0
   10.2137   38.0129   17.3091 H   0  0  0  0  0  0  0  0  0  0  0  0
    8.9938   39.1526   19.1796 H   0  0  0  0  0  0  0  0  0  0  0  0
    9.7428   42.9977   17.3223 H   0  0  0  0  0  0  0  0  0  0  0  0
  1  2  1  0
  2  3  1  0
  3  4  1  0
  4  5  2  0
  4  6  1  0
  6  7  1  0
  6  8  1  0
  8  9  1  0
  9 10  2  0
 10 11  1  0
 11 12  2  0
 11 13  1  0
 10 14  1  0
 14 15  1  0
 15 16  1  0
 16 17  2  0
 17 18  1  0
 18 19  2  0
 19 20  1  0
 20 21  2  0
 21 22  1  0
 22 23  2  0
 23 24  1  0
 24 25  2  0
 14 26  1  0
 26 27  2  0
 27 28  1  0
 28 29  2  0
 29 30  1  0
 29 31  1  0
 31 32  2  0
 32  9  1  0
 25 16  1  0
 32 26  1  0
 25 20  1  0
  1 33  1  0
  1 34  1  0
  1 35  1  0
  2 36  1  0
  2 37  1  0
  7 38  1  0
  7 39  1  0
  7 40  1  0
  8 41  1  0
  8 42  1  0
 15 43  1  0
 15 44  1  0
 17 45  1  0
 18 46  1  0
 19 47  1  0
 21 48  1  0
 22 49  1  0
 23 50  1  0
 24 51  1  0
 27 52  1  0
 28 53  1  0
 31 54  1  0
M  CHG  1  13  -1
M  END
>  <meeko>  (452) 
{"free_energy": -3.76, "intermolecular_energy": -6.15, "internal_energy": -2.18, "cluster_size": 1, "cluster_id": 339, "rank_in_cluster": 1}

$$$$

     RDKit          3D

 54 57  0  0  0  0  0  0  0  0999 V2000
    8.9020   40.1680    9.4880 C   0  0  0  0  0  0  0  0  0  0  0  0
    8.1640   41.0090   10.5320 C   0  0  0  0  0  0  0  0  0  0  0  0
    9.0410   42.0020   11.0380 O   0  0  0  0  0  0  0  0  0  0  0  0
   10.3770   41.8120   10.9890 C   0  0  0  0  0  0  0  0  0  0  0  0
   11.0720   42.1310   10.0220 O   0  0  0  0  0  0  0  0  0  0  0  0
   10.8340   41.2220   12.1740 N   0  0  0  0  0  0  0  0  0  0  0  0
   12.1660   40.6160   12.2820 C   0  0  0  0  0  0  0  0  0  0  0  0
    9.9810   41.1540   13.3690 C   0  0  0  0  0  0  0  0  0  0  0  0
    9.9940   39.7830   14.0040 C   0  0  0  0  0  0  0  0  0  0  0  0
   10.0630   39.4500   15.3450 C   0  0  0  0  0  0  0  0  0  0  0  0
   10.1090   40.3390   16.5480 C   0  0  0  0  0  0  0  0  0  0  0  0
    9.2540   41.2440   16.6580 O   0  0  0  0  0  0  0  0  0  0  0  0
   10.9970   40.1910   17.4150 O   0  0  0  0  0  1  0  0  0  0  0  0
   10.1130   38.0440   15.4620 N   0  0  0  0  0  0  0  0  0  0  0  0
   10.1810   37.2340   16.6810 C   0  0  0  0  0  0  0  0  0  0  0  0
    8.9240   36.4030   16.9750 C   0  0  0  0  0  0  0  0  0  0  0  0
    8.7350   35.1350   16.3710 C   0  0  0  0  0  0  0  0  0  0  0  0
    7.5860   34.3710   16.6370 C   0  0  0  0  0  0  0  0  0  0  0  0
    6.6030   34.8620   17.5110 C   0  0  0  0  0  0  0  0  0  0  0  0
    6.7660   36.1200   18.1210 C   0  0  0  0  0  0  0  0  0  0  0  0
    5.7680   36.5980   18.9950 C   0  0  0  0  0  0  0  0  0  0  0  0
    5.9110   37.8520   19.6160 C   0  0  0  0  0  0  0  0  0  0  0  0
    7.0540   38.6310   19.3630 C   0  0  0  0  0  0  0  0  0  0  0  0
    8.0540   38.1600   18.4910 C   0  0  0  0  0  0  0  0  0  0  0  0
    7.9260   36.8990   17.8580 C   0  0  0  0  0  0  0  0  0  0  0  0
   10.0760   37.4780   14.1940 C   0  0  0  0  0  0  0  0  0  0  0  0
   10.1140   36.1360   13.7630 C   0  0  0  0  0  0  0  0  0  0  0  0
   10.0510   35.8380   12.3920 C   0  0  0  0  0  0  0  0  0  0  0  0
    9.9490   36.8830   11.4560 C   0  0  0  0  0  0  0  0  0  0  0  0
    9.8850   36.6020   10.1330 F   0  0  0  0  0  0  0  0  0  0  0  0
    9.9160   38.2210   11.8940 C   0  0  0  0  0  0  0  0  0  0  0  0
    9.9840   38.5520   13.2690 C   0  0  0  0  0  0  0  0  0  0  0  0
    9.5455   39.4347    9.9961 H   0  0  0  0  0  0  0  0  0  0  0  0
    8.1704   39.6400    8.8587 H   0  0  0  0  0  0  0  0  0  0  0  0
    9.5206   40.8248    8.8587 H   0  0  0  0  0  0  0  0  0  0  0  0
    7.2922   41.4915   10.0659 H   0  0  0  0  0  0  0  0  0  0  0  0
    7.8256   40.3619   11.3547 H   0  0  0  0  0  0  0  0  0  0  0  0
   12.4294   40.4962   13.3433 H   0  0  0  0  0  0  0  0  0  0  0  0
   12.1617   39.6313   11.7918 H   0  0  0  0  0  0  0  0  0  0  0  0
   12.9055   41.2663   11.7918 H   0  0  0  0  0  0  0  0  0  0  0  0
   10.3425   41.8881   14.1042 H   0  0  0  0  0  0  0  0  0  0  0  0
    8.9484   41.3721   13.0589 H   0  0  0  0  0  0  0  0  0  0  0  0
   11.0324   36.5440   16.5859 H   0  0  0  0  0  0  0  0  0  0  0  0
   10.2858   37.9417   17.5166 H   0  0  0  0  0  0  0  0  0  0  0  0
    9.4991   34.7430   15.6837 H   0  0  0  0  0  0  0  0  0  0  0  0
    7.4567   33.3881   16.1604 H   0  0  0  0  0  0  0  0  0  0  0  0
    5.7043   34.2628   17.7193 H   0  0  0  0  0  0  0  0  0  0  0  0
    4.8742   35.9879   19.1919 H   0  0  0  0  0  0  0  0  0  0  0  0
    5.1310   38.2222   20.2976 H   0  0  0  0  0  0  0  0  0  0  0  0
    7.1672   39.6118   19.8481 H   0  0  0  0  0  0  0  0  0  0  0  0
    8.9439   38.7775   18.2992 H   0  0  0  0  0  0  0  0  0  0  0  0
   10.1929   35.3232   14.4999 H   0  0  0  0  0  0  0  0  0  0  0  0
   10.0813   34.7924   12.0518 H   0  0  0  0  0  0  0  0  0  0  0  0
    9.8355   39.0278   11.1506 H   0  0  0  0  0  0  0  0  0  0  0  0
  1  2  1  0
  2  3  1  0
  3  4  1  0
  4  5  2  0
  4  6  1  0
  6  7  1  0
  6  8  1  0
  8  9  1  0
  9 10  2  0
 10 11  1  0
 11 12  2  0
 11 13  1  0
 10 14  1  0
 14 15  1  0
 15 16  1  0
 16 17  2  0
 17 18  1  0
 18 19  2  0
 19 20  1  0
 20 21  2  0
 21 22  1  0
 22 23  2  0
 23 24  1  0
 24 25  2  0
 14 26  1  0
 26 27  2  0
 27 28  1  0
 28 29  2  0
 29 30  1  0
 29 31  1  0
 31 32  2  0
 32  9  1  0
 25 16  1  0
 32 26  1  0
 25 20  1  0
  1 33  1  0
  1 34  1  0
  1 35  1  0
  2 36  1  0
  2 37  1  0
  7 38  1  0
  7 39  1  0
  7 40  1  0
  8 41  1  0
  8 42  1  0
 15 43  1  0
 15 44  1  0
 17 45  1  0
 18 46  1  0
 19 47  1  0
 21 48  1  0
 22 49  1  0
 23 50  1  0
 24 51  1  0
 27 52  1  0
 28 53  1  0
 31 54  1  0
M  CHG  1  13  -1
M  END
>  <meeko>  (453) 
{"free_energy": -5.71, "intermolecular_energy": -8.1, "internal_energy": -1.93, "cluster_size": 121, "cluster_id": 34, "rank_in_cluster": 28}

$$$$

     RDKit          3D

 54 57  0  0  0  0  0  0  0  0999 V2000
   17.2590   38.0650   11.4030 C   0  0  0  0  0  0  0  0  0  0  0  0
   15.8750   37.5170   11.7570 C   0  0  0  0  0  0  0  0  0  0  0  0
   14.8840   38.2910   11.0990 O   0  0  0  0  0  0  0  0  0  0  0  0
   14.9910   39.6360   11.0620 C   0  0  0  0  0  0  0  0  0  0  0  0
   15.3780   40.2590   10.0720 O   0  0  0  0  0  0  0  0  0  0  0  0
   14.5990   40.1940   12.2860 N   0  0  0  0  0  0  0  0  0  0  0  0
   15.5570   40.4600   13.3650 C   0  0  0  0  0  0  0  0  0  0  0  0
   13.1930   40.5160   12.5610 C   0  0  0  0  0  0  0  0  0  0  0  0
   12.2860   39.3220   12.3760 C   0  0  0  0  0  0  0  0  0  0  0  0
   11.7800   38.7920   11.2020 C   0  0  0  0  0  0  0  0  0  0  0  0
   12.0090   39.2190    9.7860 C   0  0  0  0  0  0  0  0  0  0  0  0
   12.4840   40.3540    9.5710 O   0  0  0  0  0  0  0  0  0  0  0  0
   11.7110   38.4610    8.8370 O   0  0  0  0  0  1  0  0  0  0  0  0
   10.9260   37.7140   11.5210 N   0  0  0  0  0  0  0  0  0  0  0  0
   10.1760   36.8460   10.6090 C   0  0  0  0  0  0  0  0  0  0  0  0
    9.1880   37.5770    9.6890 C   0  0  0  0  0  0  0  0  0  0  0  0
    8.9750   38.9720    9.8160 C   0  0  0  0  0  0  0  0  0  0  0  0
    8.0710   39.6450    8.9750 C   0  0  0  0  0  0  0  0  0  0  0  0
    7.3630   38.9350    7.9930 C   0  0  0  0  0  0  0  0  0  0  0  0
    7.5560   37.5480    7.8490 C   0  0  0  0  0  0  0  0  0  0  0  0
    6.8360   36.8500    6.8580 C   0  0  0  0  0  0  0  0  0  0  0  0
    7.0130   35.4650    6.6960 C   0  0  0  0  0  0  0  0  0  0  0  0
    7.9130   34.7730    7.5260 C   0  0  0  0  0  0  0  0  0  0  0  0
    8.6350   35.4640    8.5180 C   0  0  0  0  0  0  0  0  0  0  0  0
    8.4690   36.8600    8.6950 C   0  0  0  0  0  0  0  0  0  0  0  0
   10.8850   37.5560   12.9000 C   0  0  0  0  0  0  0  0  0  0  0  0
   10.1830   36.6490   13.7210 C   0  0  0  0  0  0  0  0  0  0  0  0
   10.3340   36.7060   15.1170 C   0  0  0  0  0  0  0  0  0  0  0  0
   11.1870   37.6670   15.6860 C   0  0  0  0  0  0  0  0  0  0  0  0
   11.3400   37.7240   17.0310 F   0  0  0  0  0  0  0  0  0  0  0  0
   11.8820   38.5710   14.8600 C   0  0  0  0  0  0  0  0  0  0  0  0
   11.7450   38.5430   13.4510 C   0  0  0  0  0  0  0  0  0  0  0  0
   17.8138   38.2847   12.3271 H   0  0  0  0  0  0  0  0  0  0  0  0
   17.8098   37.3171   10.8137 H   0  0  0  0  0  0  0  0  0  0  0  0
   17.1485   38.9872   10.8137 H   0  0  0  0  0  0  0  0  0  0  0  0
   15.7998   36.4691   11.4310 H   0  0  0  0  0  0  0  0  0  0  0  0
   15.7236   37.5709   12.8452 H   0  0  0  0  0  0  0  0  0  0  0  0
   15.0615   40.3224   14.3374 H   0  0  0  0  0  0  0  0  0  0  0  0
   16.4041   39.7631   13.2833 H   0  0  0  0  0  0  0  0  0  0  0  0
   15.9236   41.4939   13.2833 H   0  0  0  0  0  0  0  0  0  0  0  0
   13.1071   40.8683   13.5995 H   0  0  0  0  0  0  0  0  0  0  0  0
   12.8790   41.2917   11.8471 H   0  0  0  0  0  0  0  0  0  0  0  0
   10.8983   36.3087    9.9769 H   0  0  0  0  0  0  0  0  0  0  0  0
    9.5728   36.1795   11.2429 H   0  0  0  0  0  0  0  0  0  0  0  0
    9.5247   39.5367   10.5835 H   0  0  0  0  0  0  0  0  0  0  0  0
    7.9187   40.7286    9.0869 H   0  0  0  0  0  0  0  0  0  0  0  0
    6.6567   39.4628    7.3353 H   0  0  0  0  0  0  0  0  0  0  0  0
    6.1325   37.3917    6.2086 H   0  0  0  0  0  0  0  0  0  0  0  0
    6.4490   34.9238    5.9220 H   0  0  0  0  0  0  0  0  0  0  0  0
    8.0533   33.6893    7.4000 H   0  0  0  0  0  0  0  0  0  0  0  0
    9.3359   34.9137    9.1629 H   0  0  0  0  0  0  0  0  0  0  0  0
    9.5182   35.8980   13.2692 H   0  0  0  0  0  0  0  0  0  0  0  0
    9.7871   36.0018   15.7612 H   0  0  0  0  0  0  0  0  0  0  0  0
   12.5471   39.3166   15.3202 H   0  0  0  0  0  0  0  0  0  0  0  0
  1  2  1  0
  2  3  1  0
  3  4  1  0
  4  5  2  0
  4  6  1  0
  6  7  1  0
  6  8  1  0
  8  9  1  0
  9 10  2  0
 10 11  1  0
 11 12  2  0
 11 13  1  0
 10 14  1  0
 14 15  1  0
 15 16  1  0
 16 17  2  0
 17 18  1  0
 18 19  2  0
 19 20  1  0
 20 21  2  0
 21 22  1  0
 22 23  2  0
 23 24  1  0
 24 25  2  0
 14 26  1  0
 26 27  2  0
 27 28  1  0
 28 29  2  0
 29 30  1  0
 29 31  1  0
 31 32  2  0
 32  9  1  0
 25 16  1  0
 32 26  1  0
 25 20  1  0
  1 33  1  0
  1 34  1  0
  1 35  1  0
  2 36  1  0
  2 37  1  0
  7 38  1  0
  7 39  1  0
  7 40  1  0
  8 41  1  0
  8 42  1  0
 15 43  1  0
 15 44  1  0
 17 45  1  0
 18 46  1  0
 19 47  1  0
 21 48  1  0
 22 49  1  0
 23 50  1  0
 24 51  1  0
 27 52  1  0
 28 53  1  0
 31 54  1  0
M  CHG  1  13  -1
M  END
>  <meeko>  (454) 
{"free_energy": -6.27, "intermolecular_energy": -8.66, "internal_energy": -1.49, "cluster_size": 292, "cluster_id": 10, "rank_in_cluster": 117}

$$$$

     RDKit          3D

 54 57  0  0  0  0  0  0  0  0999 V2000
   17.9060   38.3100   11.8300 C   0  0  0  0  0  0  0  0  0  0  0  0
   17.2890   39.4610   12.6290 C   0  0  0  0  0  0  0  0  0  0  0  0
   16.3620   38.9350   13.5640 O   0  0  0  0  0  0  0  0  0  0  0  0
   15.0760   38.7360   13.2030 C   0  0  0  0  0  0  0  0  0  0  0  0
   14.7450   38.2240   12.1330 O   0  0  0  0  0  0  0  0  0  0  0  0
   14.2080   39.1810   14.2090 N   0  0  0  0  0  0  0  0  0  0  0  0
   14.4160   38.8490   15.6230 C   0  0  0  0  0  0  0  0  0  0  0  0
   13.0220   39.9860   13.8900 C   0  0  0  0  0  0  0  0  0  0  0  0
   11.8680   39.1370   13.4090 C   0  0  0  0  0  0  0  0  0  0  0  0
   10.9280   38.4480   14.1560 C   0  0  0  0  0  0  0  0  0  0  0  0
   10.7610   38.3710   15.6410 C   0  0  0  0  0  0  0  0  0  0  0  0
    9.8010   38.9740   16.1690 O   0  0  0  0  0  0  0  0  0  0  0  0
   11.5760   37.7320   16.3410 O   0  0  0  0  0  1  0  0  0  0  0  0
   10.0790   37.7420   13.2780 N   0  0  0  0  0  0  0  0  0  0  0  0
    8.9360   36.8860   13.6090 C   0  0  0  0  0  0  0  0  0  0  0  0
    9.2450   35.7500   14.5940 C   0  0  0  0  0  0  0  0  0  0  0  0
   10.3110   34.8490   14.3520 C   0  0  0  0  0  0  0  0  0  0  0  0
   10.5980   33.8070   15.2520 C   0  0  0  0  0  0  0  0  0  0  0  0
    9.8210   33.6470   16.4100 C   0  0  0  0  0  0  0  0  0  0  0  0
    8.7550   34.5280   16.6730 C   0  0  0  0  0  0  0  0  0  0  0  0
    7.9860   34.3520   17.8410 C   0  0  0  0  0  0  0  0  0  0  0  0
    6.9160   35.2200   18.1230 C   0  0  0  0  0  0  0  0  0  0  0  0
    6.6140   36.2690   17.2360 C   0  0  0  0  0  0  0  0  0  0  0  0
    7.3780   36.4500   16.0680 C   0  0  0  0  0  0  0  0  0  0  0  0
    8.4600   35.5850   15.7680 C   0  0  0  0  0  0  0  0  0  0  0  0
   10.4760   37.9780   11.9690 C   0  0  0  0  0  0  0  0  0  0  0  0
    9.9780   37.5070   10.7360 C   0  0  0  0  0  0  0  0  0  0  0  0
   10.5750   37.9220    9.5340 C   0  0  0  0  0  0  0  0  0  0  0  0
   11.6670   38.8070    9.5680 C   0  0  0  0  0  0  0  0  0  0  0  0
   12.2450   39.2130    8.4130 F   0  0  0  0  0  0  0  0  0  0  0  0
   12.1610   39.2700   10.8030 C   0  0  0  0  0  0  0  0  0  0  0  0
   11.5840   38.8650   12.0310 C   0  0  0  0  0  0  0  0  0  0  0  0
   18.3095   37.5573   12.5233 H   0  0  0  0  0  0  0  0  0  0  0  0
   17.1343   37.8485   11.1963 H   0  0  0  0  0  0  0  0  0  0  0  0
   18.7175   38.6972   11.1963 H   0  0  0  0  0  0  0  0  0  0  0  0
   18.0821   40.0047   13.1632 H   0  0  0  0  0  0  0  0  0  0  0  0
   16.7730   40.1508   11.9450 H   0  0  0  0  0  0  0  0  0  0  0  0
   13.9374   39.6130   16.2533 H   0  0  0  0  0  0  0  0  0  0  0  0
   13.9722   37.8657   15.8379 H   0  0  0  0  0  0  0  0  0  0  0  0
   15.4944   38.8194   15.8379 H   0  0  0  0  0  0  0  0  0  0  0  0
   12.7093   40.5295   14.7938 H   0  0  0  0  0  0  0  0  0  0  0  0
   13.2923   40.6788   13.0794 H   0  0  0  0  0  0  0  0  0  0  0  0
    8.1520   37.5183   14.0512 H   0  0  0  0  0  0  0  0  0  0  0  0
    8.6277   36.4049   12.6691 H   0  0  0  0  0  0  0  0  0  0  0  0
   10.9238   34.9661   13.4461 H   0  0  0  0  0  0  0  0  0  0  0  0
   11.4309   33.1178   15.0485 H   0  0  0  0  0  0  0  0  0  0  0  0
   10.0455   32.8316   17.1134 H   0  0  0  0  0  0  0  0  0  0  0  0
    8.2238   33.5323   18.5349 H   0  0  0  0  0  0  0  0  0  0  0  0
    6.3169   35.0789   19.0347 H   0  0  0  0  0  0  0  0  0  0  0  0
    5.7784   36.9498   17.4558 H   0  0  0  0  0  0  0  0  0  0  0  0
    7.1326   37.2724   15.3799 H   0  0  0  0  0  0  0  0  0  0  0  0
    9.1229   36.8153   10.7158 H   0  0  0  0  0  0  0  0  0  0  0  0
   10.1899   37.5563    8.5707 H   0  0  0  0  0  0  0  0  0  0  0  0
   13.0154   39.9627   10.8138 H   0  0  0  0  0  0  0  0  0  0  0  0
  1  2  1  0
  2  3  1  0
  3  4  1  0
  4  5  2  0
  4  6  1  0
  6  7  1  0
  6  8  1  0
  8  9  1  0
  9 10  2  0
 10 11  1  0
 11 12  2  0
 11 13  1  0
 10 14  1  0
 14 15  1  0
 15 16  1  0
 16 17  2  0
 17 18  1  0
 18 19  2  0
 19 20  1  0
 20 21  2  0
 21 22  1  0
 22 23  2  0
 23 24  1  0
 24 25  2  0
 14 26  1  0
 26 27  2  0
 27 28  1  0
 28 29  2  0
 29 30  1  0
 29 31  1  0
 31 32  2  0
 32  9  1  0
 25 16  1  0
 32 26  1  0
 25 20  1  0
  1 33  1  0
  1 34  1  0
  1 35  1  0
  2 36  1  0
  2 37  1  0
  7 38  1  0
  7 39  1  0
  7 40  1  0
  8 41  1  0
  8 42  1  0
 15 43  1  0
 15 44  1  0
 17 45  1  0
 18 46  1  0
 19 47  1  0
 21 48  1  0
 22 49  1  0
 23 50  1  0
 24 51  1  0
 27 52  1  0
 28 53  1  0
 31 54  1  0
M  CHG  1  13  -1
M  END
>  <meeko>  (455) 
{"free_energy": -5.67, "intermolecular_energy": -8.06, "internal_energy": -2.02, "cluster_size": 191, "cluster_id": 13, "rank_in_cluster": 84}

$$$$

     RDKit          3D

 54 57  0  0  0  0  0  0  0  0999 V2000
    7.3590   35.0150    9.1610 C   0  0  0  0  0  0  0  0  0  0  0  0
    8.0420   35.7240    7.9890 C   0  0  0  0  0  0  0  0  0  0  0  0
    7.9810   37.1260    8.1910 O   0  0  0  0  0  0  0  0  0  0  0  0
    8.1330   37.6380    9.4320 C   0  0  0  0  0  0  0  0  0  0  0  0
    7.2110   38.1440   10.0740 O   0  0  0  0  0  0  0  0  0  0  0  0
    9.4590   37.5000    9.8610 N   0  0  0  0  0  0  0  0  0  0  0  0
   10.5100   38.4420    9.4610 C   0  0  0  0  0  0  0  0  0  0  0  0
    9.8710   36.3790   10.7160 C   0  0  0  0  0  0  0  0  0  0  0  0
   10.1930   36.8220   12.1240 C   0  0  0  0  0  0  0  0  0  0  0  0
    9.5990   36.4320   13.3120 C   0  0  0  0  0  0  0  0  0  0  0  0
    8.5020   35.4440   13.5510 C   0  0  0  0  0  0  0  0  0  0  0  0
    8.3630   34.9660   14.6980 O   0  0  0  0  0  0  0  0  0  0  0  0
    7.7510   35.0880   12.6170 O   0  0  0  0  0  1  0  0  0  0  0  0
   10.1850   37.1570   14.3720 N   0  0  0  0  0  0  0  0  0  0  0  0
    9.8890   37.0760   15.8050 C   0  0  0  0  0  0  0  0  0  0  0  0
   11.0970   36.7630   16.6970 C   0  0  0  0  0  0  0  0  0  0  0  0
   12.0910   35.8430   16.2770 C   0  0  0  0  0  0  0  0  0  0  0  0
   13.1990   35.5540   17.0910 C   0  0  0  0  0  0  0  0  0  0  0  0
   13.3340   36.1770   18.3420 C   0  0  0  0  0  0  0  0  0  0  0  0
   12.3600   37.0930   18.7820 C   0  0  0  0  0  0  0  0  0  0  0  0
   12.5110   37.7090   20.0420 C   0  0  0  0  0  0  0  0  0  0  0  0
   11.5500   38.6270   20.5020 C   0  0  0  0  0  0  0  0  0  0  0  0
   10.4340   38.9310   19.7020 C   0  0  0  0  0  0  0  0  0  0  0  0
   10.2770   38.3180   18.4440 C   0  0  0  0  0  0  0  0  0  0  0  0
   11.2360   37.3920   17.9640 C   0  0  0  0  0  0  0  0  0  0  0  0
   11.1540   38.0120   13.8610 C   0  0  0  0  0  0  0  0  0  0  0  0
   12.0060   38.9460   14.4850 C   0  0  0  0  0  0  0  0  0  0  0  0
   12.9170   39.6870   13.7140 C   0  0  0  0  0  0  0  0  0  0  0  0
   12.9740   39.4910   12.3240 C   0  0  0  0  0  0  0  0  0  0  0  0
   13.8530   40.2000   11.5750 F   0  0  0  0  0  0  0  0  0  0  0  0
   12.1180   38.5590   11.7070 C   0  0  0  0  0  0  0  0  0  0  0  0
   11.1840   37.8020   12.4570 C   0  0  0  0  0  0  0  0  0  0  0  0
    7.7463   35.4171   10.1088 H   0  0  0  0  0  0  0  0  0  0  0  0
    6.2731   35.1823    9.1082 H   0  0  0  0  0  0  0  0  0  0  0  0
    7.5667   33.9361    9.1082 H   0  0  0  0  0  0  0  0  0  0  0  0
    9.0935   35.4065    7.9296 H   0  0  0  0  0  0  0  0  0  0  0  0
    7.5296   35.4637    7.0511 H   0  0  0  0  0  0  0  0  0  0  0  0
   10.9833   38.8662   10.3588 H   0  0  0  0  0  0  0  0  0  0  0  0
   11.2669   37.9143    8.8621 H   0  0  0  0  0  0  0  0  0  0  0  0
   10.0680   39.2519    8.8621 H   0  0  0  0  0  0  0  0  0  0  0  0
    9.0536   35.6439   10.7543 H   0  0  0  0  0  0  0  0  0  0  0  0
   10.7830   35.9422   10.2831 H   0  0  0  0  0  0  0  0  0  0  0  0
    9.4708   38.0425   16.1228 H   0  0  0  0  0  0  0  0  0  0  0  0
    9.1885   36.2369   15.9285 H   0  0  0  0  0  0  0  0  0  0  0  0
   11.9931   35.3483   15.2994 H   0  0  0  0  0  0  0  0  0  0  0  0
   13.9614   34.8391   16.7480 H   0  0  0  0  0  0  0  0  0  0  0  0
   14.2016   35.9491   18.9787 H   0  0  0  0  0  0  0  0  0  0  0  0
   13.3840   37.4704   20.6673 H   0  0  0  0  0  0  0  0  0  0  0  0
   11.6709   39.1059   21.4849 H   0  0  0  0  0  0  0  0  0  0  0  0
    9.6818   39.6495   20.0599 H   0  0  0  0  0  0  0  0  0  0  0  0
    9.3995   38.5609   17.8267 H   0  0  0  0  0  0  0  0  0  0  0  0
   11.9575   39.0943   15.5739 H   0  0  0  0  0  0  0  0  0  0  0  0
   13.5829   40.4176   14.1966 H   0  0  0  0  0  0  0  0  0  0  0  0
   12.1755   38.4152   10.6180 H   0  0  0  0  0  0  0  0  0  0  0  0
  1  2  1  0
  2  3  1  0
  3  4  1  0
  4  5  2  0
  4  6  1  0
  6  7  1  0
  6  8  1  0
  8  9  1  0
  9 10  2  0
 10 11  1  0
 11 12  2  0
 11 13  1  0
 10 14  1  0
 14 15  1  0
 15 16  1  0
 16 17  2  0
 17 18  1  0
 18 19  2  0
 19 20  1  0
 20 21  2  0
 21 22  1  0
 22 23  2  0
 23 24  1  0
 24 25  2  0
 14 26  1  0
 26 27  2  0
 27 28  1  0
 28 29  2  0
 29 30  1  0
 29 31  1  0
 31 32  2  0
 32  9  1  0
 25 16  1  0
 32 26  1  0
 25 20  1  0
  1 33  1  0
  1 34  1  0
  1 35  1  0
  2 36  1  0
  2 37  1  0
  7 38  1  0
  7 39  1  0
  7 40  1  0
  8 41  1  0
  8 42  1  0
 15 43  1  0
 15 44  1  0
 17 45  1  0
 18 46  1  0
 19 47  1  0
 21 48  1  0
 22 49  1  0
 23 50  1  0
 24 51  1  0
 27 52  1  0
 28 53  1  0
 31 54  1  0
M  CHG  1  13  -1
M  END
>  <meeko>  (456) 
{"free_energy": -5.49, "intermolecular_energy": -7.88, "internal_energy": -1.27, "cluster_size": 102, "cluster_id": 44, "rank_in_cluster": 32}

$$$$

     RDKit          3D

 54 57  0  0  0  0  0  0  0  0999 V2000
   13.3790   44.5800   10.7110 C   0  0  0  0  0  0  0  0  0  0  0  0
   14.0180   44.8230   12.0800 C   0  0  0  0  0  0  0  0  0  0  0  0
   13.1180   45.5610   12.8910 O   0  0  0  0  0  0  0  0  0  0  0  0
   11.9380   45.0180   13.2590 C   0  0  0  0  0  0  0  0  0  0  0  0
   10.8620   45.3220   12.7420 O   0  0  0  0  0  0  0  0  0  0  0  0
   12.1260   44.0800   14.2830 N   0  0  0  0  0  0  0  0  0  0  0  0
   12.3800   44.4810   15.6710 C   0  0  0  0  0  0  0  0  0  0  0  0
   12.1070   42.6370   14.0070 C   0  0  0  0  0  0  0  0  0  0  0  0
   11.1670   42.2830   12.8790 C   0  0  0  0  0  0  0  0  0  0  0  0
   11.4590   41.7040   11.6570 C   0  0  0  0  0  0  0  0  0  0  0  0
   12.7720   41.2340   11.1140 C   0  0  0  0  0  0  0  0  0  0  0  0
   13.0590   41.4960    9.9260 O   0  0  0  0  0  0  0  0  0  0  0  0
   13.5570   40.5740   11.8290 O   0  0  0  0  0  1  0  0  0  0  0  0
   10.2720   41.6200   10.8980 N   0  0  0  0  0  0  0  0  0  0  0  0
   10.0890   41.0720    9.5510 C   0  0  0  0  0  0  0  0  0  0  0  0
    9.4180   39.6930    9.5010 C   0  0  0  0  0  0  0  0  0  0  0  0
    8.0680   39.5570    9.0910 C   0  0  0  0  0  0  0  0  0  0  0  0
    7.4500   38.2960    9.0430 C   0  0  0  0  0  0  0  0  0  0  0  0
    8.1690   37.1470    9.4080 C   0  0  0  0  0  0  0  0  0  0  0  0
    9.5110   37.2560    9.8200 C   0  0  0  0  0  0  0  0  0  0  0  0
   10.2180   36.0910   10.1830 C   0  0  0  0  0  0  0  0  0  0  0  0
   11.5590   36.1760   10.5990 C   0  0  0  0  0  0  0  0  0  0  0  0
   12.1960   37.4290   10.6520 C   0  0  0  0  0  0  0  0  0  0  0  0
   11.4950   38.5960   10.2920 C   0  0  0  0  0  0  0  0  0  0  0  0
   10.1440   38.5280    9.8700 C   0  0  0  0  0  0  0  0  0  0  0  0
    9.2190   42.1450   11.6360 C   0  0  0  0  0  0  0  0  0  0  0  0
    7.8510   42.3090   11.3370 C   0  0  0  0  0  0  0  0  0  0  0  0
    6.9880   42.8740   12.2900 C   0  0  0  0  0  0  0  0  0  0  0  0
    7.4940   43.2720   13.5390 C   0  0  0  0  0  0  0  0  0  0  0  0
    6.6660   43.8140   14.4640 F   0  0  0  0  0  0  0  0  0  0  0  0
    8.8620   43.1090   13.8300 C   0  0  0  0  0  0  0  0  0  0  0  0
    9.7580   42.5490   12.8870 C   0  0  0  0  0  0  0  0  0  0  0  0
   12.3586   44.1920   10.8463 H   0  0  0  0  0  0  0  0  0  0  0  0
   13.3403   45.5262   10.1513 H   0  0  0  0  0  0  0  0  0  0  0  0
   13.9787   43.8472   10.1513 H   0  0  0  0  0  0  0  0  0  0  0  0
   14.2385   43.8579   12.5595 H   0  0  0  0  0  0  0  0  0  0  0  0
   14.9528   45.3894   11.9560 H   0  0  0  0  0  0  0  0  0  0  0  0
   11.9184   43.7522   16.3535 H   0  0  0  0  0  0  0  0  0  0  0  0
   13.4648   44.5151   15.8501 H   0  0  0  0  0  0  0  0  0  0  0  0
   11.9473   45.4763   15.8501 H   0  0  0  0  0  0  0  0  0  0  0  0
   13.1231   42.3151   13.7353 H   0  0  0  0  0  0  0  0  0  0  0  0
   11.7533   42.1249   14.9140 H   0  0  0  0  0  0  0  0  0  0  0  0
    9.4677   41.7755    8.9773 H   0  0  0  0  0  0  0  0  0  0  0  0
   11.0973   40.9402    9.1316 H   0  0  0  0  0  0  0  0  0  0  0  0
    7.4955   40.4521    8.8061 H   0  0  0  0  0  0  0  0  0  0  0  0
    6.4023   38.2092    8.7193 H   0  0  0  0  0  0  0  0  0  0  0  0
    7.6836   36.1605    9.3721 H   0  0  0  0  0  0  0  0  0  0  0  0
    9.7187   35.1118   10.1406 H   0  0  0  0  0  0  0  0  0  0  0  0
   12.1077   35.2656   10.8819 H   0  0  0  0  0  0  0  0  0  0  0  0
   13.2451   37.4975   10.9757 H   0  0  0  0  0  0  0  0  0  0  0  0
   12.0018   39.5712   10.3389 H   0  0  0  0  0  0  0  0  0  0  0  0
    7.4600   41.9947   10.3581 H   0  0  0  0  0  0  0  0  0  0  0  0
    5.9203   43.0044   12.0597 H   0  0  0  0  0  0  0  0  0  0  0  0
    9.2436   43.4239   14.8125 H   0  0  0  0  0  0  0  0  0  0  0  0
  1  2  1  0
  2  3  1  0
  3  4  1  0
  4  5  2  0
  4  6  1  0
  6  7  1  0
  6  8  1  0
  8  9  1  0
  9 10  2  0
 10 11  1  0
 11 12  2  0
 11 13  1  0
 10 14  1  0
 14 15  1  0
 15 16  1  0
 16 17  2  0
 17 18  1  0
 18 19  2  0
 19 20  1  0
 20 21  2  0
 21 22  1  0
 22 23  2  0
 23 24  1  0
 24 25  2  0
 14 26  1  0
 26 27  2  0
 27 28  1  0
 28 29  2  0
 29 30  1  0
 29 31  1  0
 31 32  2  0
 32  9  1  0
 25 16  1  0
 32 26  1  0
 25 20  1  0
  1 33  1  0
  1 34  1  0
  1 35  1  0
  2 36  1  0
  2 37  1  0
  7 38  1  0
  7 39  1  0
  7 40  1  0
  8 41  1  0
  8 42  1  0
 15 43  1  0
 15 44  1  0
 17 45  1  0
 18 46  1  0
 19 47  1  0
 21 48  1  0
 22 49  1  0
 23 50  1  0
 24 51  1  0
 27 52  1  0
 28 53  1  0
 31 54  1  0
M  CHG  1  13  -1
M  END
>  <meeko>  (457) 
{"free_energy": -4.2, "intermolecular_energy": -6.59, "internal_energy": -2.4, "cluster_size": 74, "cluster_id": 18, "rank_in_cluster": 74}

$$$$

     RDKit          3D

 54 57  0  0  0  0  0  0  0  0999 V2000
   14.4370   36.5000   20.8580 C   0  0  0  0  0  0  0  0  0  0  0  0
   12.9930   37.0050   20.7960 C   0  0  0  0  0  0  0  0  0  0  0  0
   12.9190   38.0940   19.8910 O   0  0  0  0  0  0  0  0  0  0  0  0
   13.7070   38.1190   18.7950 C   0  0  0  0  0  0  0  0  0  0  0  0
   14.6680   38.8790   18.6680 O   0  0  0  0  0  0  0  0  0  0  0  0
   13.2760   37.1700   17.8590 N   0  0  0  0  0  0  0  0  0  0  0  0
   14.2180   36.3490   17.0900 C   0  0  0  0  0  0  0  0  0  0  0  0
   11.8480   36.9690   17.5790 C   0  0  0  0  0  0  0  0  0  0  0  0
   11.5420   37.0230   16.1000 C   0  0  0  0  0  0  0  0  0  0  0  0
   12.1300   37.8040   15.1210 C   0  0  0  0  0  0  0  0  0  0  0  0
   13.2520   38.7880   15.2320 C   0  0  0  0  0  0  0  0  0  0  0  0
   12.9960   39.9490   15.6170 O   0  0  0  0  0  0  0  0  0  0  0  0
   14.4190   38.4590   14.9260 O   0  0  0  0  0  1  0  0  0  0  0  0
   11.4760   37.5630   13.8940 N   0  0  0  0  0  0  0  0  0  0  0  0
   11.7570   38.1520   12.5820 C   0  0  0  0  0  0  0  0  0  0  0  0
   10.6220   39.0060   12.0010 C   0  0  0  0  0  0  0  0  0  0  0  0
   10.3400   40.2920   12.5270 C   0  0  0  0  0  0  0  0  0  0  0  0
    9.3010   41.0780   11.9980 C   0  0  0  0  0  0  0  0  0  0  0  0
    8.5230   40.5920   10.9360 C   0  0  0  0  0  0  0  0  0  0  0  0
    8.7830   39.3170   10.3980 C   0  0  0  0  0  0  0  0  0  0  0  0
    7.9910   38.8450    9.3300 C   0  0  0  0  0  0  0  0  0  0  0  0
    8.2320   37.5740    8.7770 C   0  0  0  0  0  0  0  0  0  0  0  0
    9.2670   36.7730    9.2910 C   0  0  0  0  0  0  0  0  0  0  0  0
   10.0600   37.2390   10.3570 C   0  0  0  0  0  0  0  0  0  0  0  0
    9.8320   38.5160   10.9260 C   0  0  0  0  0  0  0  0  0  0  0  0
   10.4680   36.6280   14.0890 C   0  0  0  0  0  0  0  0  0  0  0  0
    9.5270   36.0620   13.2030 C   0  0  0  0  0  0  0  0  0  0  0  0
    8.6070   35.1100   13.6730 C   0  0  0  0  0  0  0  0  0  0  0  0
    8.6310   34.7270   15.0250 C   0  0  0  0  0  0  0  0  0  0  0  0
    7.7490   33.8070   15.4840 F   0  0  0  0  0  0  0  0  0  0  0  0
    9.5710   35.2990   15.9040 C   0  0  0  0  0  0  0  0  0  0  0  0
   10.5060   36.2650   15.4610 C   0  0  0  0  0  0  0  0  0  0  0  0
   14.7432   36.3929   21.9091 H   0  0  0  0  0  0  0  0  0  0  0  0
   14.5062   35.5243   20.3547 H   0  0  0  0  0  0  0  0  0  0  0  0
   15.0991   37.2199   20.3547 H   0  0  0  0  0  0  0  0  0  0  0  0
   12.3341   36.1945   20.4511 H   0  0  0  0  0  0  0  0  0  0  0  0
   12.6726   37.3327   21.7960 H   0  0  0  0  0  0  0  0  0  0  0  0
   14.8632   35.7867   17.7811 H   0  0  0  0  0  0  0  0  0  0  0  0
   13.6584   35.6453   16.4562 H   0  0  0  0  0  0  0  0  0  0  0  0
   14.8386   36.9995   16.4562 H   0  0  0  0  0  0  0  0  0  0  0  0
   11.5461   35.9851   17.9673 H   0  0  0  0  0  0  0  0  0  0  0  0
   11.2908   37.7813   18.0685 H   0  0  0  0  0  0  0  0  0  0  0  0
   12.6492   38.7883   12.6771 H   0  0  0  0  0  0  0  0  0  0  0  0
   11.8952   37.3093   11.8886 H   0  0  0  0  0  0  0  0  0  0  0  0
   10.9428   40.6805   13.3611 H   0  0  0  0  0  0  0  0  0  0  0  0
    9.0979   42.0746   12.4169 H   0  0  0  0  0  0  0  0  0  0  0  0
    7.7097   41.2073   10.5237 H   0  0  0  0  0  0  0  0  0  0  0  0
    7.1822   39.4730    8.9283 H   0  0  0  0  0  0  0  0  0  0  0  0
    7.6125   37.2080    7.9450 H   0  0  0  0  0  0  0  0  0  0  0  0
    9.4577   35.7795    8.8591 H   0  0  0  0  0  0  0  0  0  0  0  0
   10.8662   36.6038   10.7527 H   0  0  0  0  0  0  0  0  0  0  0  0
    9.5138   36.3657   12.1458 H   0  0  0  0  0  0  0  0  0  0  0  0
    7.8713   34.6664   12.9860 H   0  0  0  0  0  0  0  0  0  0  0  0
    9.5788   34.9879   16.9591 H   0  0  0  0  0  0  0  0  0  0  0  0
  1  2  1  0
  2  3  1  0
  3  4  1  0
  4  5  2  0
  4  6  1  0
  6  7  1  0
  6  8  1  0
  8  9  1  0
  9 10  2  0
 10 11  1  0
 11 12  2  0
 11 13  1  0
 10 14  1  0
 14 15  1  0
 15 16  1  0
 16 17  2  0
 17 18  1  0
 18 19  2  0
 19 20  1  0
 20 21  2  0
 21 22  1  0
 22 23  2  0
 23 24  1  0
 24 25  2  0
 14 26  1  0
 26 27  2  0
 27 28  1  0
 28 29  2  0
 29 30  1  0
 29 31  1  0
 31 32  2  0
 32  9  1  0
 25 16  1  0
 32 26  1  0
 25 20  1  0
  1 33  1  0
  1 34  1  0
  1 35  1  0
  2 36  1  0
  2 37  1  0
  7 38  1  0
  7 39  1  0
  7 40  1  0
  8 41  1  0
  8 42  1  0
 15 43  1  0
 15 44  1  0
 17 45  1  0
 18 46  1  0
 19 47  1  0
 21 48  1  0
 22 49  1  0
 23 50  1  0
 24 51  1  0
 27 52  1  0
 28 53  1  0
 31 54  1  0
M  CHG  1  13  -1
M  END
>  <meeko>  (458) 
{"free_energy": -5.24, "intermolecular_energy": -7.63, "internal_energy": -1.74, "cluster_size": 74, "cluster_id": 37, "rank_in_cluster": 38}

$$$$

     RDKit          3D

 54 57  0  0  0  0  0  0  0  0999 V2000
   13.6690   36.4420   17.4050 C   0  0  0  0  0  0  0  0  0  0  0  0
   13.5300   37.9440   17.6630 C   0  0  0  0  0  0  0  0  0  0  0  0
   12.5120   38.4690   16.8260 O   0  0  0  0  0  0  0  0  0  0  0  0
   12.8140   38.8980   15.5820 C   0  0  0  0  0  0  0  0  0  0  0  0
   13.5650   38.2880   14.8180 O   0  0  0  0  0  0  0  0  0  0  0  0
   12.1550   40.1020   15.3030 N   0  0  0  0  0  0  0  0  0  0  0  0
   12.8560   41.3900   15.2850 C   0  0  0  0  0  0  0  0  0  0  0  0
   10.7100   40.1350   15.0410 C   0  0  0  0  0  0  0  0  0  0  0  0
    9.9990   38.9220   15.5930 C   0  0  0  0  0  0  0  0  0  0  0  0
    9.5410   38.6960   16.8780 C   0  0  0  0  0  0  0  0  0  0  0  0
    9.5820   39.5910   18.0770 C   0  0  0  0  0  0  0  0  0  0  0  0
    8.5020   39.9610   18.5870 O   0  0  0  0  0  0  0  0  0  0  0  0
   10.6750   39.9770   18.5460 O   0  0  0  0  0  1  0  0  0  0  0  0
    8.9980   37.3950   16.9460 N   0  0  0  0  0  0  0  0  0  0  0  0
    8.3870   36.7210   18.0950 C   0  0  0  0  0  0  0  0  0  0  0  0
    6.8540   36.7750   18.1340 C   0  0  0  0  0  0  0  0  0  0  0  0
    6.1010   36.8940   16.9390 C   0  0  0  0  0  0  0  0  0  0  0  0
    4.6970   36.9440   16.9700 C   0  0  0  0  0  0  0  0  0  0  0  0
    4.0190   36.8780   18.1980 C   0  0  0  0  0  0  0  0  0  0  0  0
    4.7440   36.7620   19.3990 C   0  0  0  0  0  0  0  0  0  0  0  0
    4.0470   36.6980   20.6230 C   0  0  0  0  0  0  0  0  0  0  0  0
    4.7510   36.5820   21.8350 C   0  0  0  0  0  0  0  0  0  0  0  0
    6.1560   36.5300   21.8250 C   0  0  0  0  0  0  0  0  0  0  0  0
    6.8590   36.5940   20.6060 C   0  0  0  0  0  0  0  0  0  0  0  0
    6.1650   36.7100   19.3760 C   0  0  0  0  0  0  0  0  0  0  0  0
    9.1110   36.7870   15.7020 C   0  0  0  0  0  0  0  0  0  0  0  0
    8.7420   35.5050   15.2450 C   0  0  0  0  0  0  0  0  0  0  0  0
    8.9670   35.1470   13.9060 C   0  0  0  0  0  0  0  0  0  0  0  0
    9.5590   36.0710   13.0270 C   0  0  0  0  0  0  0  0  0  0  0  0
    9.7750   35.7330   11.7340 F   0  0  0  0  0  0  0  0  0  0  0  0
    9.9280   37.3480   13.4910 C   0  0  0  0  0  0  0  0  0  0  0  0
    9.7190   37.7360   14.8370 C   0  0  0  0  0  0  0  0  0  0  0  0
   13.7184   35.9080   18.3654 H   0  0  0  0  0  0  0  0  0  0  0  0
   12.7999   36.0864   16.8321 H   0  0  0  0  0  0  0  0  0  0  0  0
   14.5886   36.2519   16.8321 H   0  0  0  0  0  0  0  0  0  0  0  0
   13.2635   38.1131   18.7167 H   0  0  0  0  0  0  0  0  0  0  0  0
   14.4838   38.4463   17.4442 H   0  0  0  0  0  0  0  0  0  0  0  0
   13.0374   41.7232   16.3175 H   0  0  0  0  0  0  0  0  0  0  0  0
   13.8171   41.2771   14.7620 H   0  0  0  0  0  0  0  0  0  0  0  0
   12.2394   42.1358   14.7620 H   0  0  0  0  0  0  0  0  0  0  0  0
   10.2864   41.0363   15.5081 H   0  0  0  0  0  0  0  0  0  0  0  0
   10.5660   40.1419   13.9505 H   0  0  0  0  0  0  0  0  0  0  0  0
    8.6915   35.6642   18.0731 H   0  0  0  0  0  0  0  0  0  0  0  0
    8.7379   37.2561   18.9897 H   0  0  0  0  0  0  0  0  0  0  0  0
    6.6237   36.9480   15.9726 H   0  0  0  0  0  0  0  0  0  0  0  0
    4.1291   37.0348   16.0324 H   0  0  0  0  0  0  0  0  0  0  0  0
    2.9199   36.9170   18.2214 H   0  0  0  0  0  0  0  0  0  0  0  0
    2.9478   36.7390   20.6300 H   0  0  0  0  0  0  0  0  0  0  0  0
    4.2040   36.5321   22.7880 H   0  0  0  0  0  0  0  0  0  0  0  0
    6.7080   36.4390   22.7721 H   0  0  0  0  0  0  0  0  0  0  0  0
    7.9583   36.5535   20.6089 H   0  0  0  0  0  0  0  0  0  0  0  0
    8.2784   34.7862   15.9367 H   0  0  0  0  0  0  0  0  0  0  0  0
    8.6812   34.1476   13.5462 H   0  0  0  0  0  0  0  0  0  0  0  0
   10.3894   38.0610   12.7919 H   0  0  0  0  0  0  0  0  0  0  0  0
  1  2  1  0
  2  3  1  0
  3  4  1  0
  4  5  2  0
  4  6  1  0
  6  7  1  0
  6  8  1  0
  8  9  1  0
  9 10  2  0
 10 11  1  0
 11 12  2  0
 11 13  1  0
 10 14  1  0
 14 15  1  0
 15 16  1  0
 16 17  2  0
 17 18  1  0
 18 19  2  0
 19 20  1  0
 20 21  2  0
 21 22  1  0
 22 23  2  0
 23 24  1  0
 24 25  2  0
 14 26  1  0
 26 27  2  0
 27 28  1  0
 28 29  2  0
 29 30  1  0
 29 31  1  0
 31 32  2  0
 32  9  1  0
 25 16  1  0
 32 26  1  0
 25 20  1  0
  1 33  1  0
  1 34  1  0
  1 35  1  0
  2 36  1  0
  2 37  1  0
  7 38  1  0
  7 39  1  0
  7 40  1  0
  8 41  1  0
  8 42  1  0
 15 43  1  0
 15 44  1  0
 17 45  1  0
 18 46  1  0
 19 47  1  0
 21 48  1  0
 22 49  1  0
 23 50  1  0
 24 51  1  0
 27 52  1  0
 28 53  1  0
 31 54  1  0
M  CHG  1  13  -1
M  END
>  <meeko>  (459) 
{"free_energy": -5.03, "intermolecular_energy": -7.41, "internal_energy": -1.98, "cluster_size": 26, "cluster_id": 77, "rank_in_cluster": 19}

$$$$

     RDKit          3D

 54 57  0  0  0  0  0  0  0  0999 V2000
   14.1020   37.3140   10.2690 C   0  0  0  0  0  0  0  0  0  0  0  0
   14.9830   37.8340   11.4080 C   0  0  0  0  0  0  0  0  0  0  0  0
   14.3270   38.9170   12.0490 O   0  0  0  0  0  0  0  0  0  0  0  0
   14.6780   39.2720   13.3040 C   0  0  0  0  0  0  0  0  0  0  0  0
   14.5670   38.5230   14.2760 O   0  0  0  0  0  0  0  0  0  0  0  0
   15.1760   40.5810   13.3220 N   0  0  0  0  0  0  0  0  0  0  0  0
   16.6120   40.8680   13.4090 C   0  0  0  0  0  0  0  0  0  0  0  0
   14.2740   41.7400   13.2850 C   0  0  0  0  0  0  0  0  0  0  0  0
   12.9770   41.4330   12.5740 C   0  0  0  0  0  0  0  0  0  0  0  0
   11.8850   40.7190   13.0340 C   0  0  0  0  0  0  0  0  0  0  0  0
   11.6560   40.0780   14.3660 C   0  0  0  0  0  0  0  0  0  0  0  0
   12.0240   40.6840   15.3950 O   0  0  0  0  0  0  0  0  0  0  0  0
   11.1250   38.9490   14.4470 O   0  0  0  0  0  1  0  0  0  0  0  0
   10.9290   40.6350   11.9990 N   0  0  0  0  0  0  0  0  0  0  0  0
    9.6150   39.9860   12.0240 C   0  0  0  0  0  0  0  0  0  0  0  0
    9.5890   38.5590   11.4610 C   0  0  0  0  0  0  0  0  0  0  0  0
   10.2110   37.4930   12.1580 C   0  0  0  0  0  0  0  0  0  0  0  0
   10.1900   36.1830   11.6470 C   0  0  0  0  0  0  0  0  0  0  0  0
    9.5490   35.9160   10.4270 C   0  0  0  0  0  0  0  0  0  0  0  0
    8.9260   36.9590    9.7150 C   0  0  0  0  0  0  0  0  0  0  0  0
    8.2860   36.6720    8.4910 C   0  0  0  0  0  0  0  0  0  0  0  0
    7.6580   37.6970    7.7620 C   0  0  0  0  0  0  0  0  0  0  0  0
    7.6670   39.0140    8.2570 C   0  0  0  0  0  0  0  0  0  0  0  0
    8.3040   39.3060    9.4780 C   0  0  0  0  0  0  0  0  0  0  0  0
    8.9420   38.2850   10.2260 C   0  0  0  0  0  0  0  0  0  0  0  0
   11.4100   41.2960   10.8760 C   0  0  0  0  0  0  0  0  0  0  0  0
   10.8600   41.4900    9.5920 C   0  0  0  0  0  0  0  0  0  0  0  0
   11.5740   42.2220    8.6280 C   0  0  0  0  0  0  0  0  0  0  0  0
   12.8320   42.7570    8.9510 C   0  0  0  0  0  0  0  0  0  0  0  0
   13.5230   43.4670    8.0270 F   0  0  0  0  0  0  0  0  0  0  0  0
   13.3770   42.5560   10.2340 C   0  0  0  0  0  0  0  0  0  0  0  0
   12.6850   41.8170   11.2240 C   0  0  0  0  0  0  0  0  0  0  0  0
   13.2265   36.7973   10.6892 H   0  0  0  0  0  0  0  0  0  0  0  0
   13.7667   38.1590    9.6497 H   0  0  0  0  0  0  0  0  0  0  0  0
   14.6798   36.6121    9.6497 H   0  0  0  0  0  0  0  0  0  0  0  0
   15.1579   37.0275   12.1353 H   0  0  0  0  0  0  0  0  0  0  0  0
   15.9476   38.1740   11.0031 H   0  0  0  0  0  0  0  0  0  0  0  0
   16.9106   40.9277   14.4660 H   0  0  0  0  0  0  0  0  0  0  0  0
   17.1771   40.0650   12.9131 H   0  0  0  0  0  0  0  0  0  0  0  0
   16.8251   41.8265   12.9131 H   0  0  0  0  0  0  0  0  0  0  0  0
   14.0481   42.0458   14.3172 H   0  0  0  0  0  0  0  0  0  0  0  0
   14.7804   42.5437   12.7303 H   0  0  0  0  0  0  0  0  0  0  0  0
    9.2726   39.9476   13.0686 H   0  0  0  0  0  0  0  0  0  0  0  0
    8.9618   40.5864   11.3737 H   0  0  0  0  0  0  0  0  0  0  0  0
   10.7180   37.6935   13.1134 H   0  0  0  0  0  0  0  0  0  0  0  0
   10.6758   35.3677   12.2032 H   0  0  0  0  0  0  0  0  0  0  0  0
    9.5334   34.8914   10.0270 H   0  0  0  0  0  0  0  0  0  0  0  0
    8.2783   35.6418    8.1054 H   0  0  0  0  0  0  0  0  0  0  0  0
    7.1610   37.4700    6.8073 H   0  0  0  0  0  0  0  0  0  0  0  0
    7.1752   39.8172    7.6887 H   0  0  0  0  0  0  0  0  0  0  0  0
    8.3066   40.3390    9.8561 H   0  0  0  0  0  0  0  0  0  0  0  0
    9.8740   41.0692    9.3455 H   0  0  0  0  0  0  0  0  0  0  0  0
   11.1496   42.3753    7.6248 H   0  0  0  0  0  0  0  0  0  0  0  0
   14.3624   42.9827   10.4724 H   0  0  0  0  0  0  0  0  0  0  0  0
  1  2  1  0
  2  3  1  0
  3  4  1  0
  4  5  2  0
  4  6  1  0
  6  7  1  0
  6  8  1  0
  8  9  1  0
  9 10  2  0
 10 11  1  0
 11 12  2  0
 11 13  1  0
 10 14  1  0
 14 15  1  0
 15 16  1  0
 16 17  2  0
 17 18  1  0
 18 19  2  0
 19 20  1  0
 20 21  2  0
 21 22  1  0
 22 23  2  0
 23 24  1  0
 24 25  2  0
 14 26  1  0
 26 27  2  0
 27 28  1  0
 28 29  2  0
 29 30  1  0
 29 31  1  0
 31 32  2  0
 32  9  1  0
 25 16  1  0
 32 26  1  0
 25 20  1  0
  1 33  1  0
  1 34  1  0
  1 35  1  0
  2 36  1  0
  2 37  1  0
  7 38  1  0
  7 39  1  0
  7 40  1  0
  8 41  1  0
  8 42  1  0
 15 43  1  0
 15 44  1  0
 17 45  1  0
 18 46  1  0
 19 47  1  0
 21 48  1  0
 22 49  1  0
 23 50  1  0
 24 51  1  0
 27 52  1  0
 28 53  1  0
 31 54  1  0
M  CHG  1  13  -1
M  END
>  <meeko>  (460) 
{"free_energy": -5.26, "intermolecular_energy": -7.64, "internal_energy": -2.29, "cluster_size": 167, "cluster_id": 22, "rank_in_cluster": 110}

$$$$

     RDKit          3D

 54 57  0  0  0  0  0  0  0  0999 V2000
   18.7490   40.1920    5.7560 C   0  0  0  0  0  0  0  0  0  0  0  0
   18.0590   40.9440    6.8960 C   0  0  0  0  0  0  0  0  0  0  0  0
   18.4740   40.3960    8.1370 O   0  0  0  0  0  0  0  0  0  0  0  0
   18.9220   41.2070    9.1190 C   0  0  0  0  0  0  0  0  0  0  0  0
   20.1150   41.4570    9.3000 O   0  0  0  0  0  0  0  0  0  0  0  0
   17.8510   41.7090    9.8690 N   0  0  0  0  0  0  0  0  0  0  0  0
   17.5730   43.1460    9.9690 C   0  0  0  0  0  0  0  0  0  0  0  0
   16.9630   40.8130   10.6220 C   0  0  0  0  0  0  0  0  0  0  0  0
   15.6590   40.5610    9.9010 C   0  0  0  0  0  0  0  0  0  0  0  0
   14.7200   39.5710   10.1300 C   0  0  0  0  0  0  0  0  0  0  0  0
   14.7030   38.4940   11.1680 C   0  0  0  0  0  0  0  0  0  0  0  0
   14.1150   38.7110   12.2490 O   0  0  0  0  0  0  0  0  0  0  0  0
   15.2820   37.4040   10.9640 O   0  0  0  0  0  1  0  0  0  0  0  0
   13.6930   39.6890    9.1690 N   0  0  0  0  0  0  0  0  0  0  0  0
   12.4860   38.8700    9.0210 C   0  0  0  0  0  0  0  0  0  0  0  0
   11.1930   39.5340    9.5130 C   0  0  0  0  0  0  0  0  0  0  0  0
   11.1870   40.8860    9.9400 C   0  0  0  0  0  0  0  0  0  0  0  0
   10.0050   41.4970   10.3910 C   0  0  0  0  0  0  0  0  0  0  0  0
    8.8060   40.7680   10.4260 C   0  0  0  0  0  0  0  0  0  0  0  0
    8.7860   39.4230   10.0090 C   0  0  0  0  0  0  0  0  0  0  0  0
    7.5730   38.7060   10.0510 C   0  0  0  0  0  0  0  0  0  0  0  0
    7.5290   37.3620    9.6400 C   0  0  0  0  0  0  0  0  0  0  0  0
    8.7010   36.7320    9.1850 C   0  0  0  0  0  0  0  0  0  0  0  0
    9.9160   37.4430    9.1410 C   0  0  0  0  0  0  0  0  0  0  0  0
    9.9770   38.7970    9.5510 C   0  0  0  0  0  0  0  0  0  0  0  0
   13.9760   40.7540    8.3250 C   0  0  0  0  0  0  0  0  0  0  0  0
   13.2900   41.2780    7.2100 C   0  0  0  0  0  0  0  0  0  0  0  0
   13.8060   42.3930    6.5290 C   0  0  0  0  0  0  0  0  0  0  0  0
   15.0060   42.9810    6.9650 C   0  0  0  0  0  0  0  0  0  0  0  0
   15.5070   44.0580    6.3160 F   0  0  0  0  0  0  0  0  0  0  0  0
   15.6880   42.4500    8.0770 C   0  0  0  0  0  0  0  0  0  0  0  0
   15.1950   41.3240    8.7800 C   0  0  0  0  0  0  0  0  0  0  0  0
   19.4367   39.4425    6.1746 H   0  0  0  0  0  0  0  0  0  0  0  0
   17.9914   39.6892    5.1369 H   0  0  0  0  0  0  0  0  0  0  0  0
   19.3149   40.9037    5.1369 H   0  0  0  0  0  0  0  0  0  0  0  0
   18.3340   42.0082    6.8538 H   0  0  0  0  0  0  0  0  0  0  0  0
   16.9680   40.8454    6.7957 H   0  0  0  0  0  0  0  0  0  0  0  0
   17.5169   43.4357   11.0287 H   0  0  0  0  0  0  0  0  0  0  0  0
   18.3786   43.7104    9.4767 H   0  0  0  0  0  0  0  0  0  0  0  0
   16.6150   43.3693    9.4767 H   0  0  0  0  0  0  0  0  0  0  0  0
   17.4756   39.8515   10.7730 H   0  0  0  0  0  0  0  0  0  0  0  0
   16.7295   41.2980   11.5813 H   0  0  0  0  0  0  0  0  0  0  0  0
   12.3634   38.6310    7.9543 H   0  0  0  0  0  0  0  0  0  0  0  0
   12.6363   37.9807    9.6508 H   0  0  0  0  0  0  0  0  0  0  0  0
   12.1219   41.4653    9.9178 H   0  0  0  0  0  0  0  0  0  0  0  0
   10.0192   42.5475   10.7169 H   0  0  0  0  0  0  0  0  0  0  0  0
    7.8813   41.2476   10.7794 H   0  0  0  0  0  0  0  0  0  0  0  0
    6.6569   39.2001   10.4069 H   0  0  0  0  0  0  0  0  0  0  0  0
    6.5809   36.8052    9.6743 H   0  0  0  0  0  0  0  0  0  0  0  0
    8.6688   35.6808    8.8625 H   0  0  0  0  0  0  0  0  0  0  0  0
   10.8275   36.9410    8.7843 H   0  0  0  0  0  0  0  0  0  0  0  0
   12.3512   40.8138    6.8736 H   0  0  0  0  0  0  0  0  0  0  0  0
   13.2735   42.8040    5.6587 H   0  0  0  0  0  0  0  0  0  0  0  0
   16.6256   42.9210    8.4071 H   0  0  0  0  0  0  0  0  0  0  0  0
  1  2  1  0
  2  3  1  0
  3  4  1  0
  4  5  2  0
  4  6  1  0
  6  7  1  0
  6  8  1  0
  8  9  1  0
  9 10  2  0
 10 11  1  0
 11 12  2  0
 11 13  1  0
 10 14  1  0
 14 15  1  0
 15 16  1  0
 16 17  2  0
 17 18  1  0
 18 19  2  0
 19 20  1  0
 20 21  2  0
 21 22  1  0
 22 23  2  0
 23 24  1  0
 24 25  2  0
 14 26  1  0
 26 27  2  0
 27 28  1  0
 28 29  2  0
 29 30  1  0
 29 31  1  0
 31 32  2  0
 32  9  1  0
 25 16  1  0
 32 26  1  0
 25 20  1  0
  1 33  1  0
  1 34  1  0
  1 35  1  0
  2 36  1  0
  2 37  1  0
  7 38  1  0
  7 39  1  0
  7 40  1  0
  8 41  1  0
  8 42  1  0
 15 43  1  0
 15 44  1  0
 17 45  1  0
 18 46  1  0
 19 47  1  0
 21 48  1  0
 22 49  1  0
 23 50  1  0
 24 51  1  0
 27 52  1  0
 28 53  1  0
 31 54  1  0
M  CHG  1  13  -1
M  END
>  <meeko>  (461) 
{"free_energy": -4.3, "intermolecular_energy": -6.69, "internal_energy": -1.22, "cluster_size": 45, "cluster_id": 28, "rank_in_cluster": 45}

$$$$

     RDKit          3D

 54 57  0  0  0  0  0  0  0  0999 V2000
   12.6140   37.1310   16.9940 C   0  0  0  0  0  0  0  0  0  0  0  0
   13.4820   37.8050   15.9290 C   0  0  0  0  0  0  0  0  0  0  0  0
   13.0920   39.1630   15.7990 O   0  0  0  0  0  0  0  0  0  0  0  0
   13.2280   39.7950   14.6140 C   0  0  0  0  0  0  0  0  0  0  0  0
   14.1050   40.6310   14.3890 O   0  0  0  0  0  0  0  0  0  0  0  0
   12.2510   39.3600   13.7100 N   0  0  0  0  0  0  0  0  0  0  0  0
   11.0250   38.6860   14.1500 C   0  0  0  0  0  0  0  0  0  0  0  0
   12.4220   39.5340   12.2610 C   0  0  0  0  0  0  0  0  0  0  0  0
   11.1270   39.8910   11.5700 C   0  0  0  0  0  0  0  0  0  0  0  0
   10.6410   39.4440   10.3550 C   0  0  0  0  0  0  0  0  0  0  0  0
   11.2320   38.4590    9.3950 C   0  0  0  0  0  0  0  0  0  0  0  0
   11.9350   38.8860    8.4540 O   0  0  0  0  0  0  0  0  0  0  0  0
   11.0100   37.2350    9.5210 O   0  0  0  0  0  1  0  0  0  0  0  0
    9.4200   40.0980   10.0840 N   0  0  0  0  0  0  0  0  0  0  0  0
    8.5390   39.9400    8.9240 C   0  0  0  0  0  0  0  0  0  0  0  0
    8.1390   38.4920    8.6110 C   0  0  0  0  0  0  0  0  0  0  0  0
    7.7480   38.1130    7.3020 C   0  0  0  0  0  0  0  0  0  0  0  0
    7.3810   36.7880    7.0110 C   0  0  0  0  0  0  0  0  0  0  0  0
    7.3950   35.8170    8.0250 C   0  0  0  0  0  0  0  0  0  0  0  0
    7.7780   36.1680    9.3330 C   0  0  0  0  0  0  0  0  0  0  0  0
    7.7870   35.1790   10.3390 C   0  0  0  0  0  0  0  0  0  0  0  0
    8.1650   35.5080   11.6530 C   0  0  0  0  0  0  0  0  0  0  0  0
    8.5370   36.8280   11.9640 C   0  0  0  0  0  0  0  0  0  0  0  0
    8.5300   37.8200   10.9650 C   0  0  0  0  0  0  0  0  0  0  0  0
    8.1520   37.5060    9.6360 C   0  0  0  0  0  0  0  0  0  0  0  0
    9.1250   40.9660   11.1280 C   0  0  0  0  0  0  0  0  0  0  0  0
    8.0480   41.8510   11.3390 C   0  0  0  0  0  0  0  0  0  0  0  0
    7.9930   42.6210   12.5130 C   0  0  0  0  0  0  0  0  0  0  0  0
    9.0140   42.5030   13.4720 C   0  0  0  0  0  0  0  0  0  0  0  0
    8.9640   43.2400   14.6070 F   0  0  0  0  0  0  0  0  0  0  0  0
   10.0890   41.6200   13.2520 C   0  0  0  0  0  0  0  0  0  0  0  0
   10.1750   40.8360   12.0770 C   0  0  0  0  0  0  0  0  0  0  0  0
   12.9761   37.4122   17.9939 H   0  0  0  0  0  0  0  0  0  0  0  0
   11.5702   37.4576   16.8768 H   0  0  0  0  0  0  0  0  0  0  0  0
   12.6718   36.0388   16.8768 H   0  0  0  0  0  0  0  0  0  0  0  0
   14.5390   37.7531   16.2292 H   0  0  0  0  0  0  0  0  0  0  0  0
   13.3515   37.2896   14.9660 H   0  0  0  0  0  0  0  0  0  0  0  0
   10.9911   38.6674   15.2493 H   0  0  0  0  0  0  0  0  0  0  0  0
   10.1495   39.2296   13.7653 H   0  0  0  0  0  0  0  0  0  0  0  0
   11.0148   37.6555   13.7653 H   0  0  0  0  0  0  0  0  0  0  0  0
   13.1506   40.3390   12.0849 H   0  0  0  0  0  0  0  0  0  0  0  0
   12.7724   38.5774   11.8461 H   0  0  0  0  0  0  0  0  0  0  0  0
    7.6206   40.5157    9.1111 H   0  0  0  0  0  0  0  0  0  0  0  0
    9.1070   40.2990    8.0531 H   0  0  0  0  0  0  0  0  0  0  0  0
    7.7316   38.8676    6.5019 H   0  0  0  0  0  0  0  0  0  0  0  0
    7.0828   36.5117    5.9889 H   0  0  0  0  0  0  0  0  0  0  0  0
    7.1062   34.7804    7.7968 H   0  0  0  0  0  0  0  0  0  0  0  0
    7.4972   34.1464   10.0946 H   0  0  0  0  0  0  0  0  0  0  0  0
    8.1697   34.7348   12.4354 H   0  0  0  0  0  0  0  0  0  0  0  0
    8.8344   37.0863   12.9911 H   0  0  0  0  0  0  0  0  0  0  0  0
    8.8211   38.8499   11.2189 H   0  0  0  0  0  0  0  0  0  0  0  0
    7.2516   41.9386   10.5853 H   0  0  0  0  0  0  0  0  0  0  0  0
    7.1547   43.3131   12.6809 H   0  0  0  0  0  0  0  0  0  0  0  0
   10.8805   41.5378   14.0115 H   0  0  0  0  0  0  0  0  0  0  0  0
  1  2  1  0
  2  3  1  0
  3  4  1  0
  4  5  2  0
  4  6  1  0
  6  7  1  0
  6  8  1  0
  8  9  1  0
  9 10  2  0
 10 11  1  0
 11 12  2  0
 11 13  1  0
 10 14  1  0
 14 15  1  0
 15 16  1  0
 16 17  2  0
 17 18  1  0
 18 19  2  0
 19 20  1  0
 20 21  2  0
 21 22  1  0
 22 23  2  0
 23 24  1  0
 24 25  2  0
 14 26  1  0
 26 27  2  0
 27 28  1  0
 28 29  2  0
 29 30  1  0
 29 31  1  0
 31 32  2  0
 32  9  1  0
 25 16  1  0
 32 26  1  0
 25 20  1  0
  1 33  1  0
  1 34  1  0
  1 35  1  0
  2 36  1  0
  2 37  1  0
  7 38  1  0
  7 39  1  0
  7 40  1  0
  8 41  1  0
  8 42  1  0
 15 43  1  0
 15 44  1  0
 17 45  1  0
 18 46  1  0
 19 47  1  0
 21 48  1  0
 22 49  1  0
 23 50  1  0
 24 51  1  0
 27 52  1  0
 28 53  1  0
 31 54  1  0
M  CHG  1  13  -1
M  END
>  <meeko>  (462) 
{"free_energy": -6.26, "intermolecular_energy": -8.65, "internal_energy": -0.93, "cluster_size": 417, "cluster_id": 2, "rank_in_cluster": 243}

$$$$

     RDKit          3D

 54 57  0  0  0  0  0  0  0  0999 V2000
   10.4300   44.5440   15.9540 C   0  0  0  0  0  0  0  0  0  0  0  0
   10.2360   44.7960   14.4570 C   0  0  0  0  0  0  0  0  0  0  0  0
    8.8550   44.7060   14.1430 O   0  0  0  0  0  0  0  0  0  0  0  0
    8.2400   43.5050   14.1330 C   0  0  0  0  0  0  0  0  0  0  0  0
    7.7600   42.9800   15.1390 O   0  0  0  0  0  0  0  0  0  0  0  0
    8.2280   42.9700   12.8380 N   0  0  0  0  0  0  0  0  0  0  0  0
    6.9800   42.6560   12.1350 C   0  0  0  0  0  0  0  0  0  0  0  0
    9.4780   42.6670   12.1280 C   0  0  0  0  0  0  0  0  0  0  0  0
    9.7820   41.1870   12.1100 C   0  0  0  0  0  0  0  0  0  0  0  0
   10.5030   40.4400   13.0240 C   0  0  0  0  0  0  0  0  0  0  0  0
   11.1560   40.8650   14.3010 C   0  0  0  0  0  0  0  0  0  0  0  0
   12.2590   41.4500   14.2450 O   0  0  0  0  0  0  0  0  0  0  0  0
   10.6170   40.6230   15.4030 O   0  0  0  0  0  1  0  0  0  0  0  0
   10.5810   39.1080   12.5610 N   0  0  0  0  0  0  0  0  0  0  0  0
   11.2330   37.9600   13.1970 C   0  0  0  0  0  0  0  0  0  0  0  0
   10.2780   36.9780   13.8890 C   0  0  0  0  0  0  0  0  0  0  0  0
    9.3830   36.1810   13.1330 C   0  0  0  0  0  0  0  0  0  0  0  0
    8.5070   35.2800   13.7620 C   0  0  0  0  0  0  0  0  0  0  0  0
    8.5090   35.1610   15.1620 C   0  0  0  0  0  0  0  0  0  0  0  0
    9.3870   35.9430   15.9350 C   0  0  0  0  0  0  0  0  0  0  0  0
    9.3740   35.8110   17.3390 C   0  0  0  0  0  0  0  0  0  0  0  0
   10.2430   36.5820   18.1320 C   0  0  0  0  0  0  0  0  0  0  0  0
   11.1270   37.4890   17.5200 C   0  0  0  0  0  0  0  0  0  0  0  0
   11.1450   37.6260   16.1190 C   0  0  0  0  0  0  0  0  0  0  0  0
   10.2770   36.8560   15.3060 C   0  0  0  0  0  0  0  0  0  0  0  0
    9.9090   39.0050   11.3500 C   0  0  0  0  0  0  0  0  0  0  0  0
    9.7050   37.9150   10.4790 C   0  0  0  0  0  0  0  0  0  0  0  0
    8.9640   38.0900    9.2990 C   0  0  0  0  0  0  0  0  0  0  0  0
    8.4270   39.3530    8.9940 C   0  0  0  0  0  0  0  0  0  0  0  0
    7.7080   39.5280    7.8600 F   0  0  0  0  0  0  0  0  0  0  0  0
    8.6380   40.4380    9.8670 C   0  0  0  0  0  0  0  0  0  0  0  0
    9.3870   40.2940   11.0600 C   0  0  0  0  0  0  0  0  0  0  0  0
    9.8577   45.2875   16.5282 H   0  0  0  0  0  0  0  0  0  0  0  0
   10.0742   43.5338   16.2049 H   0  0  0  0  0  0  0  0  0  0  0  0
   11.4976   44.6296   16.2049 H   0  0  0  0  0  0  0  0  0  0  0  0
   10.6065   45.7999   14.2020 H   0  0  0  0  0  0  0  0  0  0  0  0
   10.7954   44.0445   13.8805 H   0  0  0  0  0  0  0  0  0  0  0  0
    6.1858   42.4562   12.8694 H   0  0  0  0  0  0  0  0  0  0  0  0
    6.6899   43.5091   11.5041 H   0  0  0  0  0  0  0  0  0  0  0  0
    7.1282   41.7671   11.5041 H   0  0  0  0  0  0  0  0  0  0  0  0
    9.3912   43.0231   11.0909 H   0  0  0  0  0  0  0  0  0  0  0  0
   10.2980   43.1729   12.6587 H   0  0  0  0  0  0  0  0  0  0  0  0
   11.7876   37.4095   12.4228 H   0  0  0  0  0  0  0  0  0  0  0  0
   11.8800   38.3702   13.9864 H   0  0  0  0  0  0  0  0  0  0  0  0
    9.3738   36.2689   12.0366 H   0  0  0  0  0  0  0  0  0  0  0  0
    7.8201   34.6683   13.1587 H   0  0  0  0  0  0  0  0  0  0  0  0
    7.8234   34.4557   15.6543 H   0  0  0  0  0  0  0  0  0  0  0  0
    8.6813   35.1020   17.8160 H   0  0  0  0  0  0  0  0  0  0  0  0
   10.2313   36.4761   19.2268 H   0  0  0  0  0  0  0  0  0  0  0  0
   11.8068   38.0935   18.1384 H   0  0  0  0  0  0  0  0  0  0  0  0
   11.8402   38.3383   15.6507 H   0  0  0  0  0  0  0  0  0  0  0  0
   10.1259   36.9286   10.7236 H   0  0  0  0  0  0  0  0  0  0  0  0
    8.8044   37.2425    8.6162 H   0  0  0  0  0  0  0  0  0  0  0  0
    8.2109   41.4202    9.6161 H   0  0  0  0  0  0  0  0  0  0  0  0
  1  2  1  0
  2  3  1  0
  3  4  1  0
  4  5  2  0
  4  6  1  0
  6  7  1  0
  6  8  1  0
  8  9  1  0
  9 10  2  0
 10 11  1  0
 11 12  2  0
 11 13  1  0
 10 14  1  0
 14 15  1  0
 15 16  1  0
 16 17  2  0
 17 18  1  0
 18 19  2  0
 19 20  1  0
 20 21  2  0
 21 22  1  0
 22 23  2  0
 23 24  1  0
 24 25  2  0
 14 26  1  0
 26 27  2  0
 27 28  1  0
 28 29  2  0
 29 30  1  0
 29 31  1  0
 31 32  2  0
 32  9  1  0
 25 16  1  0
 32 26  1  0
 25 20  1  0
  1 33  1  0
  1 34  1  0
  1 35  1  0
  2 36  1  0
  2 37  1  0
  7 38  1  0
  7 39  1  0
  7 40  1  0
  8 41  1  0
  8 42  1  0
 15 43  1  0
 15 44  1  0
 17 45  1  0
 18 46  1  0
 19 47  1  0
 21 48  1  0
 22 49  1  0
 23 50  1  0
 24 51  1  0
 27 52  1  0
 28 53  1  0
 31 54  1  0
M  CHG  1  13  -1
M  END
>  <meeko>  (463) 
{"free_energy": -5.15, "intermolecular_energy": -7.54, "internal_energy": -2.06, "cluster_size": 35, "cluster_id": 73, "rank_in_cluster": 22}

$$$$

     RDKit          3D

 54 57  0  0  0  0  0  0  0  0999 V2000
   16.8990   38.1280   13.2610 C   0  0  0  0  0  0  0  0  0  0  0  0
   15.5380   38.8070   13.4330 C   0  0  0  0  0  0  0  0  0  0  0  0
   14.8190   38.7270   12.2130 O   0  0  0  0  0  0  0  0  0  0  0  0
   15.4190   39.0650   11.0510 C   0  0  0  0  0  0  0  0  0  0  0  0
   16.1030   40.0800   10.9120 O   0  0  0  0  0  0  0  0  0  0  0  0
   15.1550   38.1060   10.0640 N   0  0  0  0  0  0  0  0  0  0  0  0
   14.8370   36.7130   10.3960 C   0  0  0  0  0  0  0  0  0  0  0  0
   15.2120   38.4470    8.6370 C   0  0  0  0  0  0  0  0  0  0  0  0
   14.6710   39.8290    8.3560 C   0  0  0  0  0  0  0  0  0  0  0  0
   15.2780   40.8780    7.6890 C   0  0  0  0  0  0  0  0  0  0  0  0
   16.6190   40.9400    7.0280 C   0  0  0  0  0  0  0  0  0  0  0  0
   17.5660   41.4780    7.6410 O   0  0  0  0  0  0  0  0  0  0  0  0
   16.7830   40.4800    5.8770 O   0  0  0  0  0  1  0  0  0  0  0  0
   14.4190   41.9980    7.7250 N   0  0  0  0  0  0  0  0  0  0  0  0
   14.6310   43.3270    7.1460 C   0  0  0  0  0  0  0  0  0  0  0  0
   14.3190   43.4340    5.6470 C   0  0  0  0  0  0  0  0  0  0  0  0
   12.9790   43.4370    5.1830 C   0  0  0  0  0  0  0  0  0  0  0  0
   12.6890   43.5350    3.8110 C   0  0  0  0  0  0  0  0  0  0  0  0
   13.7330   43.6290    2.8770 C   0  0  0  0  0  0  0  0  0  0  0  0
   15.0720   43.6260    3.3130 C   0  0  0  0  0  0  0  0  0  0  0  0
   16.1080   43.7210    2.3610 C   0  0  0  0  0  0  0  0  0  0  0  0
   17.4520   43.7200    2.7740 C   0  0  0  0  0  0  0  0  0  0  0  0
   17.7630   43.6240    4.1420 C   0  0  0  0  0  0  0  0  0  0  0  0
   16.7340   43.5280    5.0970 C   0  0  0  0  0  0  0  0  0  0  0  0
   15.3740   43.5280    4.6990 C   0  0  0  0  0  0  0  0  0  0  0  0
   13.2610   41.6640    8.4160 C   0  0  0  0  0  0  0  0  0  0  0  0
   12.1120   42.4130    8.7420 C   0  0  0  0  0  0  0  0  0  0  0  0
   11.0630   41.8120    9.4570 C   0  0  0  0  0  0  0  0  0  0  0  0
   11.1650   40.4650    9.8430 C   0  0  0  0  0  0  0  0  0  0  0  0
   10.1560   39.8780   10.5290 F   0  0  0  0  0  0  0  0  0  0  0  0
   12.3180   39.7230    9.5170 C   0  0  0  0  0  0  0  0  0  0  0  0
   13.3940   40.3030    8.8030 C   0  0  0  0  0  0  0  0  0  0  0  0
   17.3293   37.9133   14.2503 H   0  0  0  0  0  0  0  0  0  0  0  0
   16.7719   37.1877   12.7045 H   0  0  0  0  0  0  0  0  0  0  0  0
   17.5738   38.7950   12.7045 H   0  0  0  0  0  0  0  0  0  0  0  0
   14.9716   38.2995   14.2278 H   0  0  0  0  0  0  0  0  0  0  0  0
   15.6837   39.8622   13.7074 H   0  0  0  0  0  0  0  0  0  0  0  0
   14.8098   36.5936   11.4892 H   0  0  0  0  0  0  0  0  0  0  0  0
   13.8558   36.4503    9.9739 H   0  0  0  0  0  0  0  0  0  0  0  0
   15.6070   36.0505    9.9739 H   0  0  0  0  0  0  0  0  0  0  0  0
   16.2595   38.4027    8.3043 H   0  0  0  0  0  0  0  0  0  0  0  0
   14.5868   37.7237    8.0929 H   0  0  0  0  0  0  0  0  0  0  0  0
   13.9867   44.0400    7.6812 H   0  0  0  0  0  0  0  0  0  0  0  0
   15.7038   43.5444    7.2550 H   0  0  0  0  0  0  0  0  0  0  0  0
   12.1545   43.3615    5.9072 H   0  0  0  0  0  0  0  0  0  0  0  0
   11.6435   43.5380    3.4690 H   0  0  0  0  0  0  0  0  0  0  0  0
   13.5048   43.7051    1.8036 H   0  0  0  0  0  0  0  0  0  0  0  0
   15.8637   43.7962    1.2911 H   0  0  0  0  0  0  0  0  0  0  0  0
   18.2580   43.7941    2.0291 H   0  0  0  0  0  0  0  0  0  0  0  0
   18.8140   43.6239    4.4666 H   0  0  0  0  0  0  0  0  0  0  0  0
   16.9882   43.4521    6.1645 H   0  0  0  0  0  0  0  0  0  0  0  0
   12.0371   43.4671    8.4367 H   0  0  0  0  0  0  0  0  0  0  0  0
   10.1653   42.3936    9.7137 H   0  0  0  0  0  0  0  0  0  0  0  0
   12.3833   38.6689    9.8245 H   0  0  0  0  0  0  0  0  0  0  0  0
  1  2  1  0
  2  3  1  0
  3  4  1  0
  4  5  2  0
  4  6  1  0
  6  7  1  0
  6  8  1  0
  8  9  1  0
  9 10  2  0
 10 11  1  0
 11 12  2  0
 11 13  1  0
 10 14  1  0
 14 15  1  0
 15 16  1  0
 16 17  2  0
 17 18  1  0
 18 19  2  0
 19 20  1  0
 20 21  2  0
 21 22  1  0
 22 23  2  0
 23 24  1  0
 24 25  2  0
 14 26  1  0
 26 27  2  0
 27 28  1  0
 28 29  2  0
 29 30  1  0
 29 31  1  0
 31 32  2  0
 32  9  1  0
 25 16  1  0
 32 26  1  0
 25 20  1  0
  1 33  1  0
  1 34  1  0
  1 35  1  0
  2 36  1  0
  2 37  1  0
  7 38  1  0
  7 39  1  0
  7 40  1  0
  8 41  1  0
  8 42  1  0
 15 43  1  0
 15 44  1  0
 17 45  1  0
 18 46  1  0
 19 47  1  0
 21 48  1  0
 22 49  1  0
 23 50  1  0
 24 51  1  0
 27 52  1  0
 28 53  1  0
 31 54  1  0
M  CHG  1  13  -1
M  END
>  <meeko>  (464) 
{"free_energy": -4.18, "intermolecular_energy": -6.57, "internal_energy": -2.04, "cluster_size": 2, "cluster_id": 248, "rank_in_cluster": 2}

$$$$

     RDKit          3D

 54 57  0  0  0  0  0  0  0  0999 V2000
    9.8320   37.5170   13.3170 C   0  0  0  0  0  0  0  0  0  0  0  0
    9.2400   36.3800   12.4810 C   0  0  0  0  0  0  0  0  0  0  0  0
    8.3970   36.9260   11.4800 O   0  0  0  0  0  0  0  0  0  0  0  0
    8.7330   36.8120   10.1770 C   0  0  0  0  0  0  0  0  0  0  0  0
    9.3650   35.8590    9.7200 O   0  0  0  0  0  0  0  0  0  0  0  0
    8.2580   37.9120    9.4500 N   0  0  0  0  0  0  0  0  0  0  0  0
    8.2130   37.9160    7.9830 C   0  0  0  0  0  0  0  0  0  0  0  0
    7.8070   39.1350   10.1260 C   0  0  0  0  0  0  0  0  0  0  0  0
    8.9600   39.9620   10.6430 C   0  0  0  0  0  0  0  0  0  0  0  0
   10.3150   39.6870   10.5940 C   0  0  0  0  0  0  0  0  0  0  0  0
   11.0290   38.5190    9.9900 C   0  0  0  0  0  0  0  0  0  0  0  0
   11.1220   38.4500    8.7460 O   0  0  0  0  0  0  0  0  0  0  0  0
   11.5070   37.6200   10.7160 O   0  0  0  0  0  1  0  0  0  0  0  0
   11.0130   40.7170   11.2600 N   0  0  0  0  0  0  0  0  0  0  0  0
   12.4590   40.8600   11.4530 C   0  0  0  0  0  0  0  0  0  0  0  0
   13.3090   40.5390   10.2170 C   0  0  0  0  0  0  0  0  0  0  0  0
   14.2960   39.5220   10.2590 C   0  0  0  0  0  0  0  0  0  0  0  0
   15.0770   39.2240    9.1300 C   0  0  0  0  0  0  0  0  0  0  0  0
   14.8880   39.9400    7.9360 C   0  0  0  0  0  0  0  0  0  0  0  0
   13.9160   40.9550    7.8700 C   0  0  0  0  0  0  0  0  0  0  0  0
   13.7400   41.6640    6.6630 C   0  0  0  0  0  0  0  0  0  0  0  0
   12.7750   42.6830    6.5740 C   0  0  0  0  0  0  0  0  0  0  0  0
   11.9830   42.9950    7.6930 C   0  0  0  0  0  0  0  0  0  0  0  0
   12.1540   42.2920    8.9000 C   0  0  0  0  0  0  0  0  0  0  0  0
   13.1210   41.2620    9.0080 C   0  0  0  0  0  0  0  0  0  0  0  0
   10.1030   41.6520   11.7360 C   0  0  0  0  0  0  0  0  0  0  0  0
   10.2780   42.8440   12.4690 C   0  0  0  0  0  0  0  0  0  0  0  0
    9.1610   43.6210   12.8200 C   0  0  0  0  0  0  0  0  0  0  0  0
    7.8750   43.2050   12.4340 C   0  0  0  0  0  0  0  0  0  0  0  0
    6.7940   43.9520   12.7660 F   0  0  0  0  0  0  0  0  0  0  0  0
    7.7080   42.0120   11.7050 C   0  0  0  0  0  0  0  0  0  0  0  0
    8.8130   41.2050   11.3430 C   0  0  0  0  0  0  0  0  0  0  0  0
    9.7122   37.2869   14.3860 H   0  0  0  0  0  0  0  0  0  0  0  0
   10.9013   37.6259   13.0830 H   0  0  0  0  0  0  0  0  0  0  0  0
    9.3080   38.4554   13.0830 H   0  0  0  0  0  0  0  0  0  0  0  0
   10.0529   35.8105   12.0067 H   0  0  0  0  0  0  0  0  0  0  0  0
    8.6567   35.7100   13.1297 H   0  0  0  0  0  0  0  0  0  0  0  0
    7.1692   38.0088    7.6484 H   0  0  0  0  0  0  0  0  0  0  0  0
    8.7976   38.7657    7.6005 H   0  0  0  0  0  0  0  0  0  0  0  0
    8.6385   36.9765    7.6005 H   0  0  0  0  0  0  0  0  0  0  0  0
    7.2288   39.7408    9.4128 H   0  0  0  0  0  0  0  0  0  0  0  0
    7.1935   38.8362   10.9887 H   0  0  0  0  0  0  0  0  0  0  0  0
   12.6635   41.8998   11.7480 H   0  0  0  0  0  0  0  0  0  0  0  0
   12.7423   40.1263   12.2220 H   0  0  0  0  0  0  0  0  0  0  0  0
   14.4526   38.9576   11.1901 H   0  0  0  0  0  0  0  0  0  0  0  0
   15.8366   38.4300    9.1808 H   0  0  0  0  0  0  0  0  0  0  0  0
   15.5003   39.7069    7.0524 H   0  0  0  0  0  0  0  0  0  0  0  0
   14.3601   41.4187    5.7881 H   0  0  0  0  0  0  0  0  0  0  0  0
   12.6402   43.2343    5.6317 H   0  0  0  0  0  0  0  0  0  0  0  0
   11.2272   43.7913    7.6248 H   0  0  0  0  0  0  0  0  0  0  0  0
   11.5298   42.5450    9.7697 H   0  0  0  0  0  0  0  0  0  0  0  0
   11.2874   43.1651   12.7656 H   0  0  0  0  0  0  0  0  0  0  0  0
    9.2923   44.5501   13.3940 H   0  0  0  0  0  0  0  0  0  0  0  0
    6.6953   41.6999   11.4100 H   0  0  0  0  0  0  0  0  0  0  0  0
  1  2  1  0
  2  3  1  0
  3  4  1  0
  4  5  2  0
  4  6  1  0
  6  7  1  0
  6  8  1  0
  8  9  1  0
  9 10  2  0
 10 11  1  0
 11 12  2  0
 11 13  1  0
 10 14  1  0
 14 15  1  0
 15 16  1  0
 16 17  2  0
 17 18  1  0
 18 19  2  0
 19 20  1  0
 20 21  2  0
 21 22  1  0
 22 23  2  0
 23 24  1  0
 24 25  2  0
 14 26  1  0
 26 27  2  0
 27 28  1  0
 28 29  2  0
 29 30  1  0
 29 31  1  0
 31 32  2  0
 32  9  1  0
 25 16  1  0
 32 26  1  0
 25 20  1  0
  1 33  1  0
  1 34  1  0
  1 35  1  0
  2 36  1  0
  2 37  1  0
  7 38  1  0
  7 39  1  0
  7 40  1  0
  8 41  1  0
  8 42  1  0
 15 43  1  0
 15 44  1  0
 17 45  1  0
 18 46  1  0
 19 47  1  0
 21 48  1  0
 22 49  1  0
 23 50  1  0
 24 51  1  0
 27 52  1  0
 28 53  1  0
 31 54  1  0
M  CHG  1  13  -1
M  END
>  <meeko>  (465) 
{"free_energy": -6.17, "intermolecular_energy": -8.55, "internal_energy": -2.12, "cluster_size": 87, "cluster_id": 14, "rank_in_cluster": 7}

$$$$

     RDKit          3D

 54 57  0  0  0  0  0  0  0  0999 V2000
    2.7140   38.4380   19.9070 C   0  0  0  0  0  0  0  0  0  0  0  0
    2.5330   38.1550   18.4140 C   0  0  0  0  0  0  0  0  0  0  0  0
    3.7100   38.5350   17.7200 O   0  0  0  0  0  0  0  0  0  0  0  0
    4.9230   38.2510   18.2410 C   0  0  0  0  0  0  0  0  0  0  0  0
    5.5890   39.0610   18.8880 O   0  0  0  0  0  0  0  0  0  0  0  0
    5.2890   36.9320   17.9440 N   0  0  0  0  0  0  0  0  0  0  0  0
    4.5490   36.1160   16.9750 C   0  0  0  0  0  0  0  0  0  0  0  0
    6.4250   36.2870   18.6170 C   0  0  0  0  0  0  0  0  0  0  0  0
    7.7170   36.4640   17.8550 C   0  0  0  0  0  0  0  0  0  0  0  0
    8.6310   37.4990   17.9280 C   0  0  0  0  0  0  0  0  0  0  0  0
    8.6270   38.7170   18.7990 C   0  0  0  0  0  0  0  0  0  0  0  0
    9.1120   38.6350   19.9470 O   0  0  0  0  0  0  0  0  0  0  0  0
    8.1290   39.7890   18.3910 O   0  0  0  0  0  1  0  0  0  0  0  0
    9.6550   37.2690   16.9850 N   0  0  0  0  0  0  0  0  0  0  0  0
   10.8400   38.0870   16.7080 C   0  0  0  0  0  0  0  0  0  0  0  0
   10.5530   39.4180   16.0000 C   0  0  0  0  0  0  0  0  0  0  0  0
   10.5640   40.6390   16.7190 C   0  0  0  0  0  0  0  0  0  0  0  0
   10.3020   41.8610   16.0750 C   0  0  0  0  0  0  0  0  0  0  0  0
   10.0230   41.8830   14.6990 C   0  0  0  0  0  0  0  0  0  0  0  0
   10.0050   40.6830   13.9640 C   0  0  0  0  0  0  0  0  0  0  0  0
    9.7220   40.7250   12.5830 C   0  0  0  0  0  0  0  0  0  0  0  0
    9.6980   39.5390   11.8280 C   0  0  0  0  0  0  0  0  0  0  0  0
    9.9580   38.3070   12.4540 C   0  0  0  0  0  0  0  0  0  0  0  0
   10.2410   38.2580   13.8320 C   0  0  0  0  0  0  0  0  0  0  0  0
   10.2690   39.4440   14.6080 C   0  0  0  0  0  0  0  0  0  0  0  0
    9.3950   36.0850   16.3070 C   0  0  0  0  0  0  0  0  0  0  0  0
   10.0880   35.4220   15.2730 C   0  0  0  0  0  0  0  0  0  0  0  0
    9.5970   34.2070   14.7670 C   0  0  0  0  0  0  0  0  0  0  0  0
    8.4160   33.6590   15.2960 C   0  0  0  0  0  0  0  0  0  0  0  0
    7.9390   32.4870   14.8150 F   0  0  0  0  0  0  0  0  0  0  0  0
    7.7270   34.3290   16.3260 C   0  0  0  0  0  0  0  0  0  0  0  0
    8.1940   35.5580   16.8520 C   0  0  0  0  0  0  0  0  0  0  0  0
    2.2122   37.6534   20.4924 H   0  0  0  0  0  0  0  0  0  0  0  0
    3.7866   38.4481   20.1509 H   0  0  0  0  0  0  0  0  0  0  0  0
    2.2733   39.4159   20.1509 H   0  0  0  0  0  0  0  0  0  0  0  0
    2.3477   37.0813   18.2631 H   0  0  0  0  0  0  0  0  0  0  0  0
    1.6769   38.7295   18.0307 H   0  0  0  0  0  0  0  0  0  0  0  0
    3.9039   35.4047   17.5115 H   0  0  0  0  0  0  0  0  0  0  0  0
    3.9288   36.7691   16.3435 H   0  0  0  0  0  0  0  0  0  0  0  0
    5.2594   35.5624   16.3435 H   0  0  0  0  0  0  0  0  0  0  0  0
    6.5409   36.7288   19.6177 H   0  0  0  0  0  0  0  0  0  0  0  0
    6.2137   35.2091   18.6764 H   0  0  0  0  0  0  0  0  0  0  0  0
   11.3342   38.3085   17.6655 H   0  0  0  0  0  0  0  0  0  0  0  0
   11.4673   37.5001   16.0209 H   0  0  0  0  0  0  0  0  0  0  0  0
   10.7808   40.6306   17.7974 H   0  0  0  0  0  0  0  0  0  0  0  0
   10.3156   42.7994   16.6488 H   0  0  0  0  0  0  0  0  0  0  0  0
    9.8183   42.8391   14.1951 H   0  0  0  0  0  0  0  0  0  0  0  0
    9.5192   41.6895   12.0945 H   0  0  0  0  0  0  0  0  0  0  0  0
    9.4765   39.5748   10.7511 H   0  0  0  0  0  0  0  0  0  0  0  0
    9.9402   37.3783   11.8648 H   0  0  0  0  0  0  0  0  0  0  0  0
   10.4426   37.2889   14.3119 H   0  0  0  0  0  0  0  0  0  0  0  0
   11.0120   35.8558   14.8632 H   0  0  0  0  0  0  0  0  0  0  0  0
   10.1345   33.6869   13.9604 H   0  0  0  0  0  0  0  0  0  0  0  0
    6.8047   33.8872   16.7311 H   0  0  0  0  0  0  0  0  0  0  0  0
  1  2  1  0
  2  3  1  0
  3  4  1  0
  4  5  2  0
  4  6  1  0
  6  7  1  0
  6  8  1  0
  8  9  1  0
  9 10  2  0
 10 11  1  0
 11 12  2  0
 11 13  1  0
 10 14  1  0
 14 15  1  0
 15 16  1  0
 16 17  2  0
 17 18  1  0
 18 19  2  0
 19 20  1  0
 20 21  2  0
 21 22  1  0
 22 23  2  0
 23 24  1  0
 24 25  2  0
 14 26  1  0
 26 27  2  0
 27 28  1  0
 28 29  2  0
 29 30  1  0
 29 31  1  0
 31 32  2  0
 32  9  1  0
 25 16  1  0
 32 26  1  0
 25 20  1  0
  1 33  1  0
  1 34  1  0
  1 35  1  0
  2 36  1  0
  2 37  1  0
  7 38  1  0
  7 39  1  0
  7 40  1  0
  8 41  1  0
  8 42  1  0
 15 43  1  0
 15 44  1  0
 17 45  1  0
 18 46  1  0
 19 47  1  0
 21 48  1  0
 22 49  1  0
 23 50  1  0
 24 51  1  0
 27 52  1  0
 28 53  1  0
 31 54  1  0
M  CHG  1  13  -1
M  END
>  <meeko>  (466) 
{"free_energy": -6.54, "intermolecular_energy": -8.92, "internal_energy": -1.86, "cluster_size": 48, "cluster_id": 30, "rank_in_cluster": 4}

$$$$

     RDKit          3D

 54 57  0  0  0  0  0  0  0  0999 V2000
   13.6390   36.2300   20.9890 C   0  0  0  0  0  0  0  0  0  0  0  0
   13.7460   37.7570   20.9970 C   0  0  0  0  0  0  0  0  0  0  0  0
   13.1310   38.2740   19.8280 O   0  0  0  0  0  0  0  0  0  0  0  0
   11.9200   37.8170   19.4420 C   0  0  0  0  0  0  0  0  0  0  0  0
   11.0130   37.5530   20.2320 O   0  0  0  0  0  0  0  0  0  0  0  0
   11.8590   37.7030   18.0470 N   0  0  0  0  0  0  0  0  0  0  0  0
   12.8150   36.8900   17.2880 C   0  0  0  0  0  0  0  0  0  0  0  0
   10.8430   38.4230   17.2680 C   0  0  0  0  0  0  0  0  0  0  0  0
   10.7410   37.9110   15.8500 C   0  0  0  0  0  0  0  0  0  0  0  0
   11.3010   38.4330   14.6980 C   0  0  0  0  0  0  0  0  0  0  0  0
   12.1900   39.6240   14.5240 C   0  0  0  0  0  0  0  0  0  0  0  0
   11.7890   40.5750   13.8190 O   0  0  0  0  0  0  0  0  0  0  0  0
   13.3190   39.6590   15.0600 O   0  0  0  0  0  1  0  0  0  0  0  0
   10.8810   37.6570   13.5960 N   0  0  0  0  0  0  0  0  0  0  0  0
   11.2260   37.8220   12.1820 C   0  0  0  0  0  0  0  0  0  0  0  0
   10.0650   38.2670   11.2830 C   0  0  0  0  0  0  0  0  0  0  0  0
    9.6050   39.6080   11.3010 C   0  0  0  0  0  0  0  0  0  0  0  0
    8.5410   40.0190   10.4790 C   0  0  0  0  0  0  0  0  0  0  0  0
    7.9160   39.0970    9.6250 C   0  0  0  0  0  0  0  0  0  0  0  0
    8.3530   37.7590    9.5900 C   0  0  0  0  0  0  0  0  0  0  0  0
    7.7130   36.8460    8.7270 C   0  0  0  0  0  0  0  0  0  0  0  0
    8.1330   35.5050    8.6760 C   0  0  0  0  0  0  0  0  0  0  0  0
    9.1960   35.0740    9.4890 C   0  0  0  0  0  0  0  0  0  0  0  0
    9.8390   35.9800   10.3540 C   0  0  0  0  0  0  0  0  0  0  0  0
    9.4290   37.3350   10.4180 C   0  0  0  0  0  0  0  0  0  0  0  0
   10.0520   36.6370   14.0450 C   0  0  0  0  0  0  0  0  0  0  0  0
    9.3680   35.6120   13.3590 C   0  0  0  0  0  0  0  0  0  0  0  0
    8.5880   34.6890   14.0750 C   0  0  0  0  0  0  0  0  0  0  0  0
    8.4960   34.7930   15.4740 C   0  0  0  0  0  0  0  0  0  0  0  0
    7.7490   33.9040   16.1710 F   0  0  0  0  0  0  0  0  0  0  0  0
    9.1790   35.8210   16.1520 C   0  0  0  0  0  0  0  0  0  0  0  0
    9.9670   36.7700   15.4560 C   0  0  0  0  0  0  0  0  0  0  0  0
   13.6130   35.8588   22.0242 H   0  0  0  0  0  0  0  0  0  0  0  0
   12.7176   35.9297   20.4685 H   0  0  0  0  0  0  0  0  0  0  0  0
   14.5095   35.8042   20.4685 H   0  0  0  0  0  0  0  0  0  0  0  0
   13.2383   38.1567   21.8872 H   0  0  0  0  0  0  0  0  0  0  0  0
   14.8052   38.0530   21.0190 H   0  0  0  0  0  0  0  0  0  0  0  0
   13.4629   36.3390   17.9857 H   0  0  0  0  0  0  0  0  0  0  0  0
   12.2677   36.1764   16.6545 H   0  0  0  0  0  0  0  0  0  0  0  0
   13.4314   37.5448   16.6545 H   0  0  0  0  0  0  0  0  0  0  0  0
    9.8668   38.3001   17.7599 H   0  0  0  0  0  0  0  0  0  0  0  0
   11.1392   39.4815   17.2240 H   0  0  0  0  0  0  0  0  0  0  0  0
   12.0229   38.5769   12.1102 H   0  0  0  0  0  0  0  0  0  0  0  0
   11.5337   36.8295   11.8210 H   0  0  0  0  0  0  0  0  0  0  0  0
   10.0877   40.3376   11.9679 H   0  0  0  0  0  0  0  0  0  0  0  0
    8.1981   41.0639   10.5052 H   0  0  0  0  0  0  0  0  0  0  0  0
    7.0838   39.4201    8.9823 H   0  0  0  0  0  0  0  0  0  0  0  0
    6.8817   37.1841    8.0910 H   0  0  0  0  0  0  0  0  0  0  0  0
    7.6313   34.7952    8.0019 H   0  0  0  0  0  0  0  0  0  0  0  0
    9.5264   34.0256    9.4492 H   0  0  0  0  0  0  0  0  0  0  0  0
   10.6687   35.6322   10.9870 H   0  0  0  0  0  0  0  0  0  0  0  0
    9.4453   35.5355   12.2644 H   0  0  0  0  0  0  0  0  0  0  0  0
    8.0518   33.8888   13.5438 H   0  0  0  0  0  0  0  0  0  0  0  0
    9.0987   35.8885   17.2470 H   0  0  0  0  0  0  0  0  0  0  0  0
  1  2  1  0
  2  3  1  0
  3  4  1  0
  4  5  2  0
  4  6  1  0
  6  7  1  0
  6  8  1  0
  8  9  1  0
  9 10  2  0
 10 11  1  0
 11 12  2  0
 11 13  1  0
 10 14  1  0
 14 15  1  0
 15 16  1  0
 16 17  2  0
 17 18  1  0
 18 19  2  0
 19 20  1  0
 20 21  2  0
 21 22  1  0
 22 23  2  0
 23 24  1  0
 24 25  2  0
 14 26  1  0
 26 27  2  0
 27 28  1  0
 28 29  2  0
 29 30  1  0
 29 31  1  0
 31 32  2  0
 32  9  1  0
 25 16  1  0
 32 26  1  0
 25 20  1  0
  1 33  1  0
  1 34  1  0
  1 35  1  0
  2 36  1  0
  2 37  1  0
  7 38  1  0
  7 39  1  0
  7 40  1  0
  8 41  1  0
  8 42  1  0
 15 43  1  0
 15 44  1  0
 17 45  1  0
 18 46  1  0
 19 47  1  0
 21 48  1  0
 22 49  1  0
 23 50  1  0
 24 51  1  0
 27 52  1  0
 28 53  1  0
 31 54  1  0
M  CHG  1  13  -1
M  END
>  <meeko>  (467) 
{"free_energy": -5.47, "intermolecular_energy": -7.86, "internal_energy": -1.75, "cluster_size": 326, "cluster_id": 11, "rank_in_cluster": 230}

$$$$

     RDKit          3D

 54 57  0  0  0  0  0  0  0  0999 V2000
   14.2080   35.2490   17.0450 C   0  0  0  0  0  0  0  0  0  0  0  0
   13.2960   35.9340   18.0650 C   0  0  0  0  0  0  0  0  0  0  0  0
   12.3370   36.7220   17.3800 O   0  0  0  0  0  0  0  0  0  0  0  0
   12.1220   38.0020   17.7530 C   0  0  0  0  0  0  0  0  0  0  0  0
   12.2320   38.3970   18.9140 O   0  0  0  0  0  0  0  0  0  0  0  0
   11.7710   38.7840   16.6450 N   0  0  0  0  0  0  0  0  0  0  0  0
   12.7570   39.5900   15.9160 C   0  0  0  0  0  0  0  0  0  0  0  0
   10.3820   38.8590   16.1730 C   0  0  0  0  0  0  0  0  0  0  0  0
    9.4980   37.8250   16.8310 C   0  0  0  0  0  0  0  0  0  0  0  0
    8.5840   37.9930   17.8560 C   0  0  0  0  0  0  0  0  0  0  0  0
    8.1810   39.2380   18.5810 C   0  0  0  0  0  0  0  0  0  0  0  0
    8.9270   40.2390   18.5140 O   0  0  0  0  0  0  0  0  0  0  0  0
    7.1290   39.2700   19.2550 O   0  0  0  0  0  1  0  0  0  0  0  0
    8.0380   36.7350   18.1870 N   0  0  0  0  0  0  0  0  0  0  0  0
    7.0270   36.4190   19.2010 C   0  0  0  0  0  0  0  0  0  0  0  0
    5.6110   36.9130   18.8760 C   0  0  0  0  0  0  0  0  0  0  0  0
    5.3490   37.6320   17.6820 C   0  0  0  0  0  0  0  0  0  0  0  0
    4.0540   38.0860   17.3800 C   0  0  0  0  0  0  0  0  0  0  0  0
    2.9960   37.8310   18.2680 C   0  0  0  0  0  0  0  0  0  0  0  0
    3.2310   37.1210   19.4600 C   0  0  0  0  0  0  0  0  0  0  0  0
    2.1570   36.8760   20.3400 C   0  0  0  0  0  0  0  0  0  0  0  0
    2.3680   36.1690   21.5370 C   0  0  0  0  0  0  0  0  0  0  0  0
    3.6570   35.7050   21.8570 C   0  0  0  0  0  0  0  0  0  0  0  0
    4.7340   35.9480   20.9830 C   0  0  0  0  0  0  0  0  0  0  0  0
    4.5380   36.6580   19.7730 C   0  0  0  0  0  0  0  0  0  0  0  0
    8.6040   35.7610   17.3740 C   0  0  0  0  0  0  0  0  0  0  0  0
    8.4170   34.3650   17.3100 C   0  0  0  0  0  0  0  0  0  0  0  0
    9.1270   33.6050   16.3660 C   0  0  0  0  0  0  0  0  0  0  0  0
   10.0210   34.2440   15.4880 C   0  0  0  0  0  0  0  0  0  0  0  0
   10.7060   33.5180   14.5730 F   0  0  0  0  0  0  0  0  0  0  0  0
   10.2050   35.6380   15.5610 C   0  0  0  0  0  0  0  0  0  0  0  0
    9.5080   36.4290   16.5060 C   0  0  0  0  0  0  0  0  0  0  0  0
   14.9793   34.6697   17.5736 H   0  0  0  0  0  0  0  0  0  0  0  0
   13.6108   34.5743   16.4140 H   0  0  0  0  0  0  0  0  0  0  0  0
   14.6895   36.0106   16.4140 H   0  0  0  0  0  0  0  0  0  0  0  0
   12.7818   35.1717   18.6687 H   0  0  0  0  0  0  0  0  0  0  0  0
   13.8976   36.5763   18.7249 H   0  0  0  0  0  0  0  0  0  0  0  0
   13.4023   40.1175   16.6339 H   0  0  0  0  0  0  0  0  0  0  0  0
   13.3724   38.9330   15.2838 H   0  0  0  0  0  0  0  0  0  0  0  0
   12.2355   40.3237   15.2838 H   0  0  0  0  0  0  0  0  0  0  0  0
    9.9849   39.8597   16.3987 H   0  0  0  0  0  0  0  0  0  0  0  0
   10.3825   38.6628   15.0906 H   0  0  0  0  0  0  0  0  0  0  0  0
    6.9894   35.3258   19.3173 H   0  0  0  0  0  0  0  0  0  0  0  0
    7.3344   36.9435   20.1177 H   0  0  0  0  0  0  0  0  0  0  0  0
    6.1720   37.8374   16.9817 H   0  0  0  0  0  0  0  0  0  0  0  0
    3.8688   38.6409   16.4485 H   0  0  0  0  0  0  0  0  0  0  0  0
    1.9824   38.1868   18.0313 H   0  0  0  0  0  0  0  0  0  0  0  0
    1.1496   37.2395   20.0891 H   0  0  0  0  0  0  0  0  0  0  0  0
    1.5278   35.9793   22.2211 H   0  0  0  0  0  0  0  0  0  0  0  0
    3.8240   35.1509   22.7925 H   0  0  0  0  0  0  0  0  0  0  0  0
    5.7385   35.5825   21.2427 H   0  0  0  0  0  0  0  0  0  0  0  0
    7.7156   33.8715   17.9988 H   0  0  0  0  0  0  0  0  0  0  0  0
    8.9846   32.5155   16.3136 H   0  0  0  0  0  0  0  0  0  0  0  0
   10.9069   36.1240   14.8674 H   0  0  0  0  0  0  0  0  0  0  0  0
  1  2  1  0
  2  3  1  0
  3  4  1  0
  4  5  2  0
  4  6  1  0
  6  7  1  0
  6  8  1  0
  8  9  1  0
  9 10  2  0
 10 11  1  0
 11 12  2  0
 11 13  1  0
 10 14  1  0
 14 15  1  0
 15 16  1  0
 16 17  2  0
 17 18  1  0
 18 19  2  0
 19 20  1  0
 20 21  2  0
 21 22  1  0
 22 23  2  0
 23 24  1  0
 24 25  2  0
 14 26  1  0
 26 27  2  0
 27 28  1  0
 28 29  2  0
 29 30  1  0
 29 31  1  0
 31 32  2  0
 32  9  1  0
 25 16  1  0
 32 26  1  0
 25 20  1  0
  1 33  1  0
  1 34  1  0
  1 35  1  0
  2 36  1  0
  2 37  1  0
  7 38  1  0
  7 39  1  0
  7 40  1  0
  8 41  1  0
  8 42  1  0
 15 43  1  0
 15 44  1  0
 17 45  1  0
 18 46  1  0
 19 47  1  0
 21 48  1  0
 22 49  1  0
 23 50  1  0
 24 51  1  0
 27 52  1  0
 28 53  1  0
 31 54  1  0
M  CHG  1  13  -1
M  END
>  <meeko>  (468) 
{"free_energy": -5.38, "intermolecular_energy": -7.77, "internal_energy": -1.89, "cluster_size": 136, "cluster_id": 17, "rank_in_cluster": 109}

$$$$

     RDKit          3D

 54 57  0  0  0  0  0  0  0  0999 V2000
    7.0100   35.8170   19.2640 C   0  0  0  0  0  0  0  0  0  0  0  0
    7.1620   37.3240   19.0450 C   0  0  0  0  0  0  0  0  0  0  0  0
    8.4880   37.7120   19.3670 O   0  0  0  0  0  0  0  0  0  0  0  0
    8.9970   38.8580   18.8670 C   0  0  0  0  0  0  0  0  0  0  0  0
    8.7580   39.9700   19.3420 O   0  0  0  0  0  0  0  0  0  0  0  0
    9.8190   38.5910   17.7650 N   0  0  0  0  0  0  0  0  0  0  0  0
   10.9350   37.6410   17.8350 C   0  0  0  0  0  0  0  0  0  0  0  0
    9.6190   39.2770   16.4820 C   0  0  0  0  0  0  0  0  0  0  0  0
    9.7590   38.3420   15.3040 C   0  0  0  0  0  0  0  0  0  0  0  0
   10.2880   38.5980   14.0510 C   0  0  0  0  0  0  0  0  0  0  0  0
   10.9020   39.8510   13.5130 C   0  0  0  0  0  0  0  0  0  0  0  0
   10.3990   40.9510   13.8310 O   0  0  0  0  0  0  0  0  0  0  0  0
   11.8880   39.7990   12.7460 O   0  0  0  0  0  1  0  0  0  0  0  0
   10.1500   37.4410   13.2550 N   0  0  0  0  0  0  0  0  0  0  0  0
   10.5730   37.2360   11.8660 C   0  0  0  0  0  0  0  0  0  0  0  0
    9.6170   37.8070   10.8100 C   0  0  0  0  0  0  0  0  0  0  0  0
    9.4140   39.2050   10.6950 C   0  0  0  0  0  0  0  0  0  0  0  0
    8.5400   39.7320    9.7290 C   0  0  0  0  0  0  0  0  0  0  0  0
    7.8500   38.8710    8.8620 C   0  0  0  0  0  0  0  0  0  0  0  0
    8.0330   37.4780    8.9570 C   0  0  0  0  0  0  0  0  0  0  0  0
    7.3320   36.6280    8.0770 C   0  0  0  0  0  0  0  0  0  0  0  0
    7.4990   35.2340    8.1550 C   0  0  0  0  0  0  0  0  0  0  0  0
    8.3700   34.6870    9.1140 C   0  0  0  0  0  0  0  0  0  0  0  0
    9.0730   35.5300    9.9960 C   0  0  0  0  0  0  0  0  0  0  0  0
    8.9160   36.9370    9.9310 C   0  0  0  0  0  0  0  0  0  0  0  0
    9.5320   36.4440   13.9980 C   0  0  0  0  0  0  0  0  0  0  0  0
    9.1550   35.1250   13.6720 C   0  0  0  0  0  0  0  0  0  0  0  0
    8.5400   34.3120   14.6390 C   0  0  0  0  0  0  0  0  0  0  0  0
    8.3040   34.8200   15.9280 C   0  0  0  0  0  0  0  0  0  0  0  0
    7.7140   34.0410   16.8660 F   0  0  0  0  0  0  0  0  0  0  0  0
    8.6790   36.1400   16.2450 C   0  0  0  0  0  0  0  0  0  0  0  0
    9.2950   36.9850   15.2900 C   0  0  0  0  0  0  0  0  0  0  0  0
    6.9885   35.6036   20.3429 H   0  0  0  0  0  0  0  0  0  0  0  0
    6.0725   35.4722   18.8033 H   0  0  0  0  0  0  0  0  0  0  0  0
    7.8597   35.2920   18.8033 H   0  0  0  0  0  0  0  0  0  0  0  0
    6.9537   37.5654   17.9922 H   0  0  0  0  0  0  0  0  0  0  0  0
    6.4527   37.8639   19.6895 H   0  0  0  0  0  0  0  0  0  0  0  0
   11.1762   37.4357   18.8884 H   0  0  0  0  0  0  0  0  0  0  0  0
   10.6505   36.7036   17.3345 H   0  0  0  0  0  0  0  0  0  0  0  0
   11.8149   38.0715   17.3345 H   0  0  0  0  0  0  0  0  0  0  0  0
    8.6098   39.7145   16.4684 H   0  0  0  0  0  0  0  0  0  0  0  0
   10.3942   40.0520   16.3904 H   0  0  0  0  0  0  0  0  0  0  0  0
   11.5545   37.7146   11.7332 H   0  0  0  0  0  0  0  0  0  0  0  0
   10.5950   36.1478   11.7069 H   0  0  0  0  0  0  0  0  0  0  0  0
    9.9485   39.8876   11.3720 H   0  0  0  0  0  0  0  0  0  0  0  0
    8.3967   40.8199    9.6524 H   0  0  0  0  0  0  0  0  0  0  0  0
    7.1652   39.2848    8.1071 H   0  0  0  0  0  0  0  0  0  0  0  0
    6.6518   37.0571    7.3265 H   0  0  0  0  0  0  0  0  0  0  0  0
    6.9500   34.5733    7.4679 H   0  0  0  0  0  0  0  0  0  0  0  0
    8.5026   33.5967    9.1754 H   0  0  0  0  0  0  0  0  0  0  0  0
    9.7511   35.0919   10.7432 H   0  0  0  0  0  0  0  0  0  0  0  0
    9.3422   34.7328   12.6615 H   0  0  0  0  0  0  0  0  0  0  0  0
    8.2446   33.2825   14.3883 H   0  0  0  0  0  0  0  0  0  0  0  0
    8.4889   36.5237   17.2583 H   0  0  0  0  0  0  0  0  0  0  0  0
  1  2  1  0
  2  3  1  0
  3  4  1  0
  4  5  2  0
  4  6  1  0
  6  7  1  0
  6  8  1  0
  8  9  1  0
  9 10  2  0
 10 11  1  0
 11 12  2  0
 11 13  1  0
 10 14  1  0
 14 15  1  0
 15 16  1  0
 16 17  2  0
 17 18  1  0
 18 19  2  0
 19 20  1  0
 20 21  2  0
 21 22  1  0
 22 23  2  0
 23 24  1  0
 24 25  2  0
 14 26  1  0
 26 27  2  0
 27 28  1  0
 28 29  2  0
 29 30  1  0
 29 31  1  0
 31 32  2  0
 32  9  1  0
 25 16  1  0
 32 26  1  0
 25 20  1  0
  1 33  1  0
  1 34  1  0
  1 35  1  0
  2 36  1  0
  2 37  1  0
  7 38  1  0
  7 39  1  0
  7 40  1  0
  8 41  1  0
  8 42  1  0
 15 43  1  0
 15 44  1  0
 17 45  1  0
 18 46  1  0
 19 47  1  0
 21 48  1  0
 22 49  1  0
 23 50  1  0
 24 51  1  0
 27 52  1  0
 28 53  1  0
 31 54  1  0
M  CHG  1  13  -1
M  END
>  <meeko>  (469) 
{"free_energy": -6.71, "intermolecular_energy": -9.1, "internal_energy": -1.82, "cluster_size": 326, "cluster_id": 11, "rank_in_cluster": 18}

$$$$

     RDKit          3D

 54 57  0  0  0  0  0  0  0  0999 V2000
    8.4060   40.5900   10.6050 C   0  0  0  0  0  0  0  0  0  0  0  0
    8.1430   39.7120    9.3790 C   0  0  0  0  0  0  0  0  0  0  0  0
    7.4020   38.5690    9.7730 O   0  0  0  0  0  0  0  0  0  0  0  0
    7.3740   37.4750    8.9820 C   0  0  0  0  0  0  0  0  0  0  0  0
    6.7040   37.4010    7.9510 O   0  0  0  0  0  0  0  0  0  0  0  0
    8.2050   36.4730    9.4990 N   0  0  0  0  0  0  0  0  0  0  0  0
    7.6690   35.2380   10.0820 C   0  0  0  0  0  0  0  0  0  0  0  0
    9.6660   36.6250    9.5090 C   0  0  0  0  0  0  0  0  0  0  0  0
   10.1560   37.3700   10.7290 C   0  0  0  0  0  0  0  0  0  0  0  0
   10.9320   38.5140   10.7930 C   0  0  0  0  0  0  0  0  0  0  0  0
   11.4780   39.3590    9.6850 C   0  0  0  0  0  0  0  0  0  0  0  0
   11.3110   40.5960    9.7350 O   0  0  0  0  0  0  0  0  0  0  0  0
   12.0730   38.8340    8.7190 O   0  0  0  0  0  1  0  0  0  0  0  0
   11.1940   38.8100   12.1470 N   0  0  0  0  0  0  0  0  0  0  0  0
   11.9630   39.9280   12.7020 C   0  0  0  0  0  0  0  0  0  0  0  0
   13.4870   39.7570   12.6400 C   0  0  0  0  0  0  0  0  0  0  0  0
   14.2090   40.1050   11.4720 C   0  0  0  0  0  0  0  0  0  0  0  0
   15.6050   39.9500   11.4110 C   0  0  0  0  0  0  0  0  0  0  0  0
   16.3040   39.4420   12.5170 C   0  0  0  0  0  0  0  0  0  0  0  0
   15.6090   39.0870   13.6880 C   0  0  0  0  0  0  0  0  0  0  0  0
   16.3270   38.5770   14.7890 C   0  0  0  0  0  0  0  0  0  0  0  0
   15.6540   38.2160   15.9700 C   0  0  0  0  0  0  0  0  0  0  0  0
   14.2580   38.3640   16.0510 C   0  0  0  0  0  0  0  0  0  0  0  0
   13.5340   38.8720   14.9550 C   0  0  0  0  0  0  0  0  0  0  0  0
   14.1970   39.2410   13.7580 C   0  0  0  0  0  0  0  0  0  0  0  0
   10.5860   37.8550   12.9510 C   0  0  0  0  0  0  0  0  0  0  0  0
   10.5540   37.6870   14.3510 C   0  0  0  0  0  0  0  0  0  0  0  0
    9.8400   36.6150   14.9110 C   0  0  0  0  0  0  0  0  0  0  0  0
    9.1600   35.7160   14.0720 C   0  0  0  0  0  0  0  0  0  0  0  0
    8.4660   34.6830   14.6060 F   0  0  0  0  0  0  0  0  0  0  0  0
    9.1990   35.8880   12.6750 C   0  0  0  0  0  0  0  0  0  0  0  0
    9.9160   36.9550   12.0800 C   0  0  0  0  0  0  0  0  0  0  0  0
    8.2306   40.0046   11.5196 H   0  0  0  0  0  0  0  0  0  0  0  0
    9.4485   40.9404   10.5882 H   0  0  0  0  0  0  0  0  0  0  0  0
    7.7278   41.4559   10.5882 H   0  0  0  0  0  0  0  0  0  0  0  0
    7.5696   40.2831    8.6339 H   0  0  0  0  0  0  0  0  0  0  0  0
    9.1004   39.3972    8.9382 H   0  0  0  0  0  0  0  0  0  0  0  0
    7.6991   35.3074   11.1794 H   0  0  0  0  0  0  0  0  0  0  0  0
    6.6291   35.0979    9.7519 H   0  0  0  0  0  0  0  0  0  0  0  0
    8.2769   34.3827    9.7519 H   0  0  0  0  0  0  0  0  0  0  0  0
   10.1258   35.6258    9.4961 H   0  0  0  0  0  0  0  0  0  0  0  0
    9.9500   37.2090    8.6211 H   0  0  0  0  0  0  0  0  0  0  0  0
   11.6979   40.8367   12.1417 H   0  0  0  0  0  0  0  0  0  0  0  0
   11.7016   39.9830   13.7691 H   0  0  0  0  0  0  0  0  0  0  0  0
   13.6694   40.5024   10.5997 H   0  0  0  0  0  0  0  0  0  0  0  0
   16.1495   40.2269   10.4962 H   0  0  0  0  0  0  0  0  0  0  0  0
   17.3963   39.3212   12.4684 H   0  0  0  0  0  0  0  0  0  0  0  0
   17.4189   38.4609   14.7240 H   0  0  0  0  0  0  0  0  0  0  0  0
   16.2177   37.8193   16.8273 H   0  0  0  0  0  0  0  0  0  0  0  0
   13.7296   38.0820   16.9736 H   0  0  0  0  0  0  0  0  0  0  0  0
   12.4422   38.9836   15.0288 H   0  0  0  0  0  0  0  0  0  0  0  0
   11.0873   38.3943   15.0031 H   0  0  0  0  0  0  0  0  0  0  0  0
    9.8132   36.4797   16.0023 H   0  0  0  0  0  0  0  0  0  0  0  0
    8.6603   35.1774   12.0309 H   0  0  0  0  0  0  0  0  0  0  0  0
  1  2  1  0
  2  3  1  0
  3  4  1  0
  4  5  2  0
  4  6  1  0
  6  7  1  0
  6  8  1  0
  8  9  1  0
  9 10  2  0
 10 11  1  0
 11 12  2  0
 11 13  1  0
 10 14  1  0
 14 15  1  0
 15 16  1  0
 16 17  2  0
 17 18  1  0
 18 19  2  0
 19 20  1  0
 20 21  2  0
 21 22  1  0
 22 23  2  0
 23 24  1  0
 24 25  2  0
 14 26  1  0
 26 27  2  0
 27 28  1  0
 28 29  2  0
 29 30  1  0
 29 31  1  0
 31 32  2  0
 32  9  1  0
 25 16  1  0
 32 26  1  0
 25 20  1  0
  1 33  1  0
  1 34  1  0
  1 35  1  0
  2 36  1  0
  2 37  1  0
  7 38  1  0
  7 39  1  0
  7 40  1  0
  8 41  1  0
  8 42  1  0
 15 43  1  0
 15 44  1  0
 17 45  1  0
 18 46  1  0
 19 47  1  0
 21 48  1  0
 22 49  1  0
 23 50  1  0
 24 51  1  0
 27 52  1  0
 28 53  1  0
 31 54  1  0
M  CHG  1  13  -1
M  END
>  <meeko>  (470) 
{"free_energy": -5.22, "intermolecular_energy": -7.61, "internal_energy": -2.22, "cluster_size": 51, "cluster_id": 80, "rank_in_cluster": 16}

$$$$

     RDKit          3D

 54 57  0  0  0  0  0  0  0  0999 V2000
    8.3410   43.0050   13.7370 C   0  0  0  0  0  0  0  0  0  0  0  0
    8.5940   43.5380   15.1490 C   0  0  0  0  0  0  0  0  0  0  0  0
    8.4960   42.4690   16.0760 O   0  0  0  0  0  0  0  0  0  0  0  0
    9.6130   41.9450   16.6250 C   0  0  0  0  0  0  0  0  0  0  0  0
   10.1470   40.9110   16.2200 O   0  0  0  0  0  0  0  0  0  0  0  0
   10.0580   42.7420   17.6880 N   0  0  0  0  0  0  0  0  0  0  0  0
   10.7680   44.0070   17.4710 C   0  0  0  0  0  0  0  0  0  0  0  0
    9.8580   42.3300   19.0840 C   0  0  0  0  0  0  0  0  0  0  0  0
    9.5030   40.8670   19.2040 C   0  0  0  0  0  0  0  0  0  0  0  0
    8.3150   40.2940   19.6220 C   0  0  0  0  0  0  0  0  0  0  0  0
    7.0360   40.9490   20.0380 C   0  0  0  0  0  0  0  0  0  0  0  0
    6.4520   41.6980   19.2260 O   0  0  0  0  0  0  0  0  0  0  0  0
    6.5700   40.7640   21.1840 O   0  0  0  0  0  1  0  0  0  0  0  0
    8.4660   38.8910   19.6330 N   0  0  0  0  0  0  0  0  0  0  0  0
    7.4760   37.8720   19.9930 C   0  0  0  0  0  0  0  0  0  0  0  0
    6.6820   37.2980   18.8120 C   0  0  0  0  0  0  0  0  0  0  0  0
    7.3070   36.4610   17.8550 C   0  0  0  0  0  0  0  0  0  0  0  0
    6.5830   35.9330   16.7720 C   0  0  0  0  0  0  0  0  0  0  0  0
    5.2200   36.2350   16.6250 C   0  0  0  0  0  0  0  0  0  0  0  0
    4.5760   37.0660   17.5610 C   0  0  0  0  0  0  0  0  0  0  0  0
    3.2070   37.3590   17.3980 C   0  0  0  0  0  0  0  0  0  0  0  0
    2.5430   38.1860   18.3210 C   0  0  0  0  0  0  0  0  0  0  0  0
    3.2500   38.7230   19.4120 C   0  0  0  0  0  0  0  0  0  0  0  0
    4.6180   38.4350   19.5810 C   0  0  0  0  0  0  0  0  0  0  0  0
    5.3010   37.6030   18.6600 C   0  0  0  0  0  0  0  0  0  0  0  0
    9.7520   38.5660   19.2230 C   0  0  0  0  0  0  0  0  0  0  0  0
   10.4060   37.3250   19.0760 C   0  0  0  0  0  0  0  0  0  0  0  0
   11.7360   37.2830   18.6260 C   0  0  0  0  0  0  0  0  0  0  0  0
   12.4070   38.4800   18.3220 C   0  0  0  0  0  0  0  0  0  0  0  0
   13.6880   38.4460   17.8840 F   0  0  0  0  0  0  0  0  0  0  0  0
   11.7490   39.7160   18.4750 C   0  0  0  0  0  0  0  0  0  0  0  0
   10.4110   39.7900   18.9330 C   0  0  0  0  0  0  0  0  0  0  0  0
    7.8700   42.0128   13.7985 H   0  0  0  0  0  0  0  0  0  0  0  0
    7.6742   43.6947   13.1988 H   0  0  0  0  0  0  0  0  0  0  0  0
    9.2969   42.9244   13.1988 H   0  0  0  0  0  0  0  0  0  0  0  0
    9.6005   43.9788   15.2009 H   0  0  0  0  0  0  0  0  0  0  0  0
    7.8469   44.3078   15.3926 H   0  0  0  0  0  0  0  0  0  0  0  0
   11.0206   44.4570   18.4424 H   0  0  0  0  0  0  0  0  0  0  0  0
   11.6912   43.8167   16.9039 H   0  0  0  0  0  0  0  0  0  0  0  0
   10.1247   44.6959   16.9039 H   0  0  0  0  0  0  0  0  0  0  0  0
   10.7862   42.5160   19.6443 H   0  0  0  0  0  0  0  0  0  0  0  0
    9.0196   42.9144   19.4908 H   0  0  0  0  0  0  0  0  0  0  0  0
    8.0034   37.0421   20.4859 H   0  0  0  0  0  0  0  0  0  0  0  0
    6.7432   38.3701   20.6449 H   0  0  0  0  0  0  0  0  0  0  0  0
    8.3752   36.2206   17.9611 H   0  0  0  0  0  0  0  0  0  0  0  0
    7.0845   35.2832   16.0397 H   0  0  0  0  0  0  0  0  0  0  0  0
    4.6543   35.8216   15.7770 H   0  0  0  0  0  0  0  0  0  0  0  0
    2.6553   36.9385   16.5443 H   0  0  0  0  0  0  0  0  0  0  0  0
    1.4745   38.4123   18.1904 H   0  0  0  0  0  0  0  0  0  0  0  0
    2.7326   39.3701   20.1356 H   0  0  0  0  0  0  0  0  0  0  0  0
    5.1620   38.8605   20.4371 H   0  0  0  0  0  0  0  0  0  0  0  0
    9.8752   36.3912   19.3134 H   0  0  0  0  0  0  0  0  0  0  0  0
   12.2502   36.3173   18.5120 H   0  0  0  0  0  0  0  0  0  0  0  0
   12.2866   40.6447   18.2333 H   0  0  0  0  0  0  0  0  0  0  0  0
  1  2  1  0
  2  3  1  0
  3  4  1  0
  4  5  2  0
  4  6  1  0
  6  7  1  0
  6  8  1  0
  8  9  1  0
  9 10  2  0
 10 11  1  0
 11 12  2  0
 11 13  1  0
 10 14  1  0
 14 15  1  0
 15 16  1  0
 16 17  2  0
 17 18  1  0
 18 19  2  0
 19 20  1  0
 20 21  2  0
 21 22  1  0
 22 23  2  0
 23 24  1  0
 24 25  2  0
 14 26  1  0
 26 27  2  0
 27 28  1  0
 28 29  2  0
 29 30  1  0
 29 31  1  0
 31 32  2  0
 32  9  1  0
 25 16  1  0
 32 26  1  0
 25 20  1  0
  1 33  1  0
  1 34  1  0
  1 35  1  0
  2 36  1  0
  2 37  1  0
  7 38  1  0
  7 39  1  0
  7 40  1  0
  8 41  1  0
  8 42  1  0
 15 43  1  0
 15 44  1  0
 17 45  1  0
 18 46  1  0
 19 47  1  0
 21 48  1  0
 22 49  1  0
 23 50  1  0
 24 51  1  0
 27 52  1  0
 28 53  1  0
 31 54  1  0
M  CHG  1  13  -1
M  END
>  <meeko>  (471) 
{"free_energy": -5.05, "intermolecular_energy": -7.44, "internal_energy": -1.95, "cluster_size": 16, "cluster_id": 94, "rank_in_cluster": 10}

$$$$

     RDKit          3D

 54 57  0  0  0  0  0  0  0  0999 V2000
    8.7490   40.3120    9.5070 C   0  0  0  0  0  0  0  0  0  0  0  0
    8.5200   39.2110    8.4680 C   0  0  0  0  0  0  0  0  0  0  0  0
    8.9630   37.9710    8.9960 O   0  0  0  0  0  0  0  0  0  0  0  0
    8.4700   37.5200   10.1690 C   0  0  0  0  0  0  0  0  0  0  0  0
    7.3550   37.8250   10.5980 O   0  0  0  0  0  0  0  0  0  0  0  0
    9.3930   36.6740   10.7980 N   0  0  0  0  0  0  0  0  0  0  0  0
   10.7670   36.5180   10.3080 C   0  0  0  0  0  0  0  0  0  0  0  0
    9.0170   35.8740   11.9700 C   0  0  0  0  0  0  0  0  0  0  0  0
    9.3130   36.5860   13.2690 C   0  0  0  0  0  0  0  0  0  0  0  0
    9.2050   36.1100   14.5630 C   0  0  0  0  0  0  0  0  0  0  0  0
    8.8020   34.7540   15.0500 C   0  0  0  0  0  0  0  0  0  0  0  0
    9.5290   33.7760   14.7740 O   0  0  0  0  0  0  0  0  0  0  0  0
    7.7460   34.6000   15.7030 O   0  0  0  0  0  1  0  0  0  0  0  0
    9.5280   37.1510   15.4590 N   0  0  0  0  0  0  0  0  0  0  0  0
    9.5620   37.1140   16.9240 C   0  0  0  0  0  0  0  0  0  0  0  0
   10.9570   36.9240   17.5320 C   0  0  0  0  0  0  0  0  0  0  0  0
   12.0700   36.6080   16.7120 C   0  0  0  0  0  0  0  0  0  0  0  0
   13.3500   36.4330   17.2650 C   0  0  0  0  0  0  0  0  0  0  0  0
   13.5420   36.5680   18.6490 C   0  0  0  0  0  0  0  0  0  0  0  0
   12.4530   36.8800   19.4850 C   0  0  0  0  0  0  0  0  0  0  0  0
   12.6640   37.0110   20.8730 C   0  0  0  0  0  0  0  0  0  0  0  0
   11.5900   37.3210   21.7270 C   0  0  0  0  0  0  0  0  0  0  0  0
   10.3020   37.5020   21.1930 C   0  0  0  0  0  0  0  0  0  0  0  0
   10.0840   37.3710   19.8090 C   0  0  0  0  0  0  0  0  0  0  0  0
   11.1540   37.0590   18.9340 C   0  0  0  0  0  0  0  0  0  0  0  0
    9.8420   38.2950   14.7370 C   0  0  0  0  0  0  0  0  0  0  0  0
   10.2120   39.5930   15.1470 C   0  0  0  0  0  0  0  0  0  0  0  0
   10.4880   40.5790   14.1850 C   0  0  0  0  0  0  0  0  0  0  0  0
   10.3950   40.2650   12.8190 C   0  0  0  0  0  0  0  0  0  0  0  0
   10.6630   41.2100   11.8870 F   0  0  0  0  0  0  0  0  0  0  0  0
   10.0210   38.9680   12.4170 C   0  0  0  0  0  0  0  0  0  0  0  0
    9.7300   37.9550   13.3630 C   0  0  0  0  0  0  0  0  0  0  0  0
    8.6605   39.8866   10.5176 H   0  0  0  0  0  0  0  0  0  0  0  0
    9.7548   40.7373    9.3750 H   0  0  0  0  0  0  0  0  0  0  0  0
    7.9962   41.1031    9.3750 H   0  0  0  0  0  0  0  0  0  0  0  0
    7.4480   39.1473    8.2298 H   0  0  0  0  0  0  0  0  0  0  0  0
    9.0828   39.4446    7.5522 H   0  0  0  0  0  0  0  0  0  0  0  0
   11.4546   36.4399   11.1631 H   0  0  0  0  0  0  0  0  0  0  0  0
   10.8370   35.6061    9.6968 H   0  0  0  0  0  0  0  0  0  0  0  0
   11.0396   37.3910    9.6968 H   0  0  0  0  0  0  0  0  0  0  0  0
    7.9391   35.6603   11.9214 H   0  0  0  0  0  0  0  0  0  0  0  0
    9.6113   34.9486   11.9505 H   0  0  0  0  0  0  0  0  0  0  0  0
    9.1517   38.0630   17.2996 H   0  0  0  0  0  0  0  0  0  0  0  0
    8.9718   36.2358   17.2246 H   0  0  0  0  0  0  0  0  0  0  0  0
   11.9293   36.4982   15.6266 H   0  0  0  0  0  0  0  0  0  0  0  0
   14.2020   36.1901   16.6130 H   0  0  0  0  0  0  0  0  0  0  0  0
   14.5443   36.4299   19.0808 H   0  0  0  0  0  0  0  0  0  0  0  0
   13.6723   36.8703   21.2896 H   0  0  0  0  0  0  0  0  0  0  0  0
   11.7574   37.4215   22.8095 H   0  0  0  0  0  0  0  0  0  0  0  0
    9.4618   37.7469   21.8594 H   0  0  0  0  0  0  0  0  0  0  0  0
    9.0719   37.5123   19.4019 H   0  0  0  0  0  0  0  0  0  0  0  0
   10.2843   39.8328   16.2181 H   0  0  0  0  0  0  0  0  0  0  0  0
   10.7758   41.5928   14.5002 H   0  0  0  0  0  0  0  0  0  0  0  0
    9.9534   38.7365   11.3438 H   0  0  0  0  0  0  0  0  0  0  0  0
  1  2  1  0
  2  3  1  0
  3  4  1  0
  4  5  2  0
  4  6  1  0
  6  7  1  0
  6  8  1  0
  8  9  1  0
  9 10  2  0
 10 11  1  0
 11 12  2  0
 11 13  1  0
 10 14  1  0
 14 15  1  0
 15 16  1  0
 16 17  2  0
 17 18  1  0
 18 19  2  0
 19 20  1  0
 20 21  2  0
 21 22  1  0
 22 23  2  0
 23 24  1  0
 24 25  2  0
 14 26  1  0
 26 27  2  0
 27 28  1  0
 28 29  2  0
 29 30  1  0
 29 31  1  0
 31 32  2  0
 32  9  1  0
 25 16  1  0
 32 26  1  0
 25 20  1  0
  1 33  1  0
  1 34  1  0
  1 35  1  0
  2 36  1  0
  2 37  1  0
  7 38  1  0
  7 39  1  0
  7 40  1  0
  8 41  1  0
  8 42  1  0
 15 43  1  0
 15 44  1  0
 17 45  1  0
 18 46  1  0
 19 47  1  0
 21 48  1  0
 22 49  1  0
 23 50  1  0
 24 51  1  0
 27 52  1  0
 28 53  1  0
 31 54  1  0
M  CHG  1  13  -1
M  END
>  <meeko>  (472) 
{"free_energy": -4.96, "intermolecular_energy": -7.35, "internal_energy": -1.76, "cluster_size": 136, "cluster_id": 23, "rank_in_cluster": 119}

$$$$

     RDKit          3D

 54 57  0  0  0  0  0  0  0  0999 V2000
    5.5390   40.4280   20.3440 C   0  0  0  0  0  0  0  0  0  0  0  0
    4.8170   39.3100   19.5890 C   0  0  0  0  0  0  0  0  0  0  0  0
    5.6420   38.8520   18.5300 O   0  0  0  0  0  0  0  0  0  0  0  0
    5.6030   37.5560   18.1540 C   0  0  0  0  0  0  0  0  0  0  0  0
    5.1540   37.1780   17.0700 O   0  0  0  0  0  0  0  0  0  0  0  0
    6.1420   36.7370   19.1540 N   0  0  0  0  0  0  0  0  0  0  0  0
    5.3040   36.1020   20.1780 C   0  0  0  0  0  0  0  0  0  0  0  0
    7.5880   36.4950   19.2450 C   0  0  0  0  0  0  0  0  0  0  0  0
    8.3040   36.8190   17.9540 C   0  0  0  0  0  0  0  0  0  0  0  0
    8.9320   37.9940   17.5830 C   0  0  0  0  0  0  0  0  0  0  0  0
    9.1140   39.2630   18.3550 C   0  0  0  0  0  0  0  0  0  0  0  0
   10.2520   39.5430   18.7900 O   0  0  0  0  0  0  0  0  0  0  0  0
    8.1430   40.0190   18.5750 O   0  0  0  0  0  1  0  0  0  0  0  0
    9.4060   37.8580   16.2610 N   0  0  0  0  0  0  0  0  0  0  0  0
   10.1400   38.8350   15.4520 C   0  0  0  0  0  0  0  0  0  0  0  0
   11.5290   39.2040   15.9900 C   0  0  0  0  0  0  0  0  0  0  0  0
   11.9240   40.5600   16.1090 C   0  0  0  0  0  0  0  0  0  0  0  0
   13.1950   40.9030   16.6020 C   0  0  0  0  0  0  0  0  0  0  0  0
   14.0960   39.8960   16.9820 C   0  0  0  0  0  0  0  0  0  0  0  0
   13.7280   38.5420   16.8710 C   0  0  0  0  0  0  0  0  0  0  0  0
   14.6460   37.5430   17.2570 C   0  0  0  0  0  0  0  0  0  0  0  0
   14.3000   36.1840   17.1540 C   0  0  0  0  0  0  0  0  0  0  0  0
   13.0330   35.8200   16.6650 C   0  0  0  0  0  0  0  0  0  0  0  0
   12.1120   36.8130   16.2770 C   0  0  0  0  0  0  0  0  0  0  0  0
   12.4440   38.1860   16.3740 C   0  0  0  0  0  0  0  0  0  0  0  0
    9.0810   36.5940   15.7860 C   0  0  0  0  0  0  0  0  0  0  0  0
    9.3090   35.9700   14.5420 C   0  0  0  0  0  0  0  0  0  0  0  0
    8.8720   34.6520   14.3280 C   0  0  0  0  0  0  0  0  0  0  0  0
    8.2100   33.9620   15.3590 C   0  0  0  0  0  0  0  0  0  0  0  0
    7.7900   32.6900   15.1610 F   0  0  0  0  0  0  0  0  0  0  0  0
    7.9830   34.5930   16.5970 C   0  0  0  0  0  0  0  0  0  0  0  0
    8.4060   35.9230   16.8400 C   0  0  0  0  0  0  0  0  0  0  0  0
    5.4344   40.2660   21.4270 H   0  0  0  0  0  0  0  0  0  0  0  0
    6.6053   40.4236   20.0739 H   0  0  0  0  0  0  0  0  0  0  0  0
    5.0963   41.3981   20.0739 H   0  0  0  0  0  0  0  0  0  0  0  0
    4.6065   38.4781   20.2772 H   0  0  0  0  0  0  0  0  0  0  0  0
    3.8703   39.6927   19.1800 H   0  0  0  0  0  0  0  0  0  0  0  0
    5.6714   36.3804   21.1768 H   0  0  0  0  0  0  0  0  0  0  0  0
    4.2639   36.4407   20.0623 H   0  0  0  0  0  0  0  0  0  0  0  0
    5.3487   35.0090   20.0623 H   0  0  0  0  0  0  0  0  0  0  0  0
    8.0024   37.1233   20.0471 H   0  0  0  0  0  0  0  0  0  0  0  0
    7.7386   35.4258   19.4553 H   0  0  0  0  0  0  0  0  0  0  0  0
   10.2643   38.4180   14.4417 H   0  0  0  0  0  0  0  0  0  0  0  0
    9.5456   39.7604   15.4702 H   0  0  0  0  0  0  0  0  0  0  0  0
   11.2255   41.3559   15.8111 H   0  0  0  0  0  0  0  0  0  0  0  0
   13.4835   41.9608   16.6900 H   0  0  0  0  0  0  0  0  0  0  0  0
   15.0906   40.1653   17.3669 H   0  0  0  0  0  0  0  0  0  0  0  0
   15.6368   37.8283   17.6402 H   0  0  0  0  0  0  0  0  0  0  0  0
   15.0187   35.4076   17.4552 H   0  0  0  0  0  0  0  0  0  0  0  0
   12.7602   34.7574   16.5852 H   0  0  0  0  0  0  0  0  0  0  0  0
   11.1237   36.5183   15.8943 H   0  0  0  0  0  0  0  0  0  0  0  0
    9.8285   36.5148   13.7399 H   0  0  0  0  0  0  0  0  0  0  0  0
    9.0469   34.1622   13.3587 H   0  0  0  0  0  0  0  0  0  0  0  0
    7.4649   34.0401   17.3945 H   0  0  0  0  0  0  0  0  0  0  0  0
  1  2  1  0
  2  3  1  0
  3  4  1  0
  4  5  2  0
  4  6  1  0
  6  7  1  0
  6  8  1  0
  8  9  1  0
  9 10  2  0
 10 11  1  0
 11 12  2  0
 11 13  1  0
 10 14  1  0
 14 15  1  0
 15 16  1  0
 16 17  2  0
 17 18  1  0
 18 19  2  0
 19 20  1  0
 20 21  2  0
 21 22  1  0
 22 23  2  0
 23 24  1  0
 24 25  2  0
 14 26  1  0
 26 27  2  0
 27 28  1  0
 28 29  2  0
 29 30  1  0
 29 31  1  0
 31 32  2  0
 32  9  1  0
 25 16  1  0
 32 26  1  0
 25 20  1  0
  1 33  1  0
  1 34  1  0
  1 35  1  0
  2 36  1  0
  2 37  1  0
  7 38  1  0
  7 39  1  0
  7 40  1  0
  8 41  1  0
  8 42  1  0
 15 43  1  0
 15 44  1  0
 17 45  1  0
 18 46  1  0
 19 47  1  0
 21 48  1  0
 22 49  1  0
 23 50  1  0
 24 51  1  0
 27 52  1  0
 28 53  1  0
 31 54  1  0
M  CHG  1  13  -1
M  END
>  <meeko>  (473) 
{"free_energy": -5.38, "intermolecular_energy": -7.77, "internal_energy": -2.16, "cluster_size": 20, "cluster_id": 81, "rank_in_cluster": 5}

$$$$

     RDKit          3D

 54 57  0  0  0  0  0  0  0  0999 V2000
   12.5050   34.5760   16.1900 C   0  0  0  0  0  0  0  0  0  0  0  0
   11.0120   34.2360   16.1840 C   0  0  0  0  0  0  0  0  0  0  0  0
   10.3460   35.0390   17.1450 O   0  0  0  0  0  0  0  0  0  0  0  0
    8.9990   35.0070   17.2370 C   0  0  0  0  0  0  0  0  0  0  0  0
    8.3270   34.0050   16.9910 O   0  0  0  0  0  0  0  0  0  0  0  0
    8.5050   36.2520   17.6480 N   0  0  0  0  0  0  0  0  0  0  0  0
    7.1650   36.4080   18.2250 C   0  0  0  0  0  0  0  0  0  0  0  0
    9.3020   37.4760   17.4950 C   0  0  0  0  0  0  0  0  0  0  0  0
    9.9960   37.5440   16.1550 C   0  0  0  0  0  0  0  0  0  0  0  0
    9.6130   36.9780   14.9510 C   0  0  0  0  0  0  0  0  0  0  0  0
    8.3960   36.1720   14.6200 C   0  0  0  0  0  0  0  0  0  0  0  0
    8.5040   35.2250   13.8120 O   0  0  0  0  0  0  0  0  0  0  0  0
    7.2880   36.4540   15.1280 O   0  0  0  0  0  1  0  0  0  0  0  0
   10.6030   37.2520   13.9840 N   0  0  0  0  0  0  0  0  0  0  0  0
   10.6280   36.8660   12.5710 C   0  0  0  0  0  0  0  0  0  0  0  0
    9.6060   37.5930   11.6860 C   0  0  0  0  0  0  0  0  0  0  0  0
    8.6200   36.8690   10.9700 C   0  0  0  0  0  0  0  0  0  0  0  0
    7.6820   37.5310   10.1590 C   0  0  0  0  0  0  0  0  0  0  0  0
    7.7160   38.9310   10.0460 C   0  0  0  0  0  0  0  0  0  0  0  0
    8.6870   39.6720   10.7450 C   0  0  0  0  0  0  0  0  0  0  0  0
    8.7060   41.0760   10.6190 C   0  0  0  0  0  0  0  0  0  0  0  0
    9.6670   41.8370   11.3080 C   0  0  0  0  0  0  0  0  0  0  0  0
   10.6130   41.1940   12.1260 C   0  0  0  0  0  0  0  0  0  0  0  0
   10.6000   39.7920   12.2550 C   0  0  0  0  0  0  0  0  0  0  0  0
    9.6380   39.0100   11.5680 C   0  0  0  0  0  0  0  0  0  0  0  0
   11.6210   37.9940   14.5700 C   0  0  0  0  0  0  0  0  0  0  0  0
   12.8290   38.5050   14.0520 C   0  0  0  0  0  0  0  0  0  0  0  0
   13.6900   39.2440   14.8800 C   0  0  0  0  0  0  0  0  0  0  0  0
   13.3390   39.4720   16.2220 C   0  0  0  0  0  0  0  0  0  0  0  0
   14.1630   40.1870   17.0250 F   0  0  0  0  0  0  0  0  0  0  0  0
   12.1330   38.9560   16.7330 C   0  0  0  0  0  0  0  0  0  0  0  0
   11.2490   38.2010   15.9250 C   0  0  0  0  0  0  0  0  0  0  0  0
   12.8585   34.6565   17.2285 H   0  0  0  0  0  0  0  0  0  0  0  0
   13.0639   33.7821   15.6729 H   0  0  0  0  0  0  0  0  0  0  0  0
   12.6651   35.5336   15.6729 H   0  0  0  0  0  0  0  0  0  0  0  0
   10.5938   34.4339   15.1860 H   0  0  0  0  0  0  0  0  0  0  0  0
   10.8744   33.1732   16.4319 H   0  0  0  0  0  0  0  0  0  0  0  0
    7.2352   36.3998   19.3227 H   0  0  0  0  0  0  0  0  0  0  0  0
    6.7314   37.3627   17.8924 H   0  0  0  0  0  0  0  0  0  0  0  0
    6.5237   35.5784   17.8924 H   0  0  0  0  0  0  0  0  0  0  0  0
    8.6364   38.3462   17.5933 H   0  0  0  0  0  0  0  0  0  0  0  0
   10.0769   37.4730   18.2757 H   0  0  0  0  0  0  0  0  0  0  0  0
   11.6330   37.0766   12.1766 H   0  0  0  0  0  0  0  0  0  0  0  0
   10.3628   35.7990   12.5372 H   0  0  0  0  0  0  0  0  0  0  0  0
    8.5884   35.7724   11.0502 H   0  0  0  0  0  0  0  0  0  0  0  0
    6.9217   36.9532    9.6131 H   0  0  0  0  0  0  0  0  0  0  0  0
    6.9826   39.4487    9.4103 H   0  0  0  0  0  0  0  0  0  0  0  0
    7.9658   41.5784    9.9789 H   0  0  0  0  0  0  0  0  0  0  0  0
    9.6787   42.9323   11.2074 H   0  0  0  0  0  0  0  0  0  0  0  0
   11.3649   41.7878   12.6664 H   0  0  0  0  0  0  0  0  0  0  0  0
   11.3449   39.2980   12.8962 H   0  0  0  0  0  0  0  0  0  0  0  0
   13.0968   38.3250   13.0004 H   0  0  0  0  0  0  0  0  0  0  0  0
   14.6342   39.6423   14.4803 H   0  0  0  0  0  0  0  0  0  0  0  0
   11.8714   39.1438   17.7848 H   0  0  0  0  0  0  0  0  0  0  0  0
  1  2  1  0
  2  3  1  0
  3  4  1  0
  4  5  2  0
  4  6  1  0
  6  7  1  0
  6  8  1  0
  8  9  1  0
  9 10  2  0
 10 11  1  0
 11 12  2  0
 11 13  1  0
 10 14  1  0
 14 15  1  0
 15 16  1  0
 16 17  2  0
 17 18  1  0
 18 19  2  0
 19 20  1  0
 20 21  2  0
 21 22  1  0
 22 23  2  0
 23 24  1  0
 24 25  2  0
 14 26  1  0
 26 27  2  0
 27 28  1  0
 28 29  2  0
 29 30  1  0
 29 31  1  0
 31 32  2  0
 32  9  1  0
 25 16  1  0
 32 26  1  0
 25 20  1  0
  1 33  1  0
  1 34  1  0
  1 35  1  0
  2 36  1  0
  2 37  1  0
  7 38  1  0
  7 39  1  0
  7 40  1  0
  8 41  1  0
  8 42  1  0
 15 43  1  0
 15 44  1  0
 17 45  1  0
 18 46  1  0
 19 47  1  0
 21 48  1  0
 22 49  1  0
 23 50  1  0
 24 51  1  0
 27 52  1  0
 28 53  1  0
 31 54  1  0
M  CHG  1  13  -1
M  END
>  <meeko>  (474) 
{"free_energy": -5.29, "intermolecular_energy": -7.67, "internal_energy": -1.97, "cluster_size": 163, "cluster_id": 4, "rank_in_cluster": 146}

$$$$

     RDKit          3D

 54 57  0  0  0  0  0  0  0  0999 V2000
   13.0270   42.2240    5.7000 C   0  0  0  0  0  0  0  0  0  0  0  0
   14.3400   42.5550    6.4140 C   0  0  0  0  0  0  0  0  0  0  0  0
   14.1020   43.5610    7.3850 O   0  0  0  0  0  0  0  0  0  0  0  0
   14.6870   43.4810    8.6000 C   0  0  0  0  0  0  0  0  0  0  0  0
   15.7320   44.0660    8.8890 O   0  0  0  0  0  0  0  0  0  0  0  0
   13.9380   42.6590    9.4520 N   0  0  0  0  0  0  0  0  0  0  0  0
   14.5490   41.9320   10.5710 C   0  0  0  0  0  0  0  0  0  0  0  0
   12.4970   42.4600    9.2470 C   0  0  0  0  0  0  0  0  0  0  0  0
   11.9230   41.4250   10.1850 C   0  0  0  0  0  0  0  0  0  0  0  0
   12.0720   40.0490   10.1540 C   0  0  0  0  0  0  0  0  0  0  0  0
   12.8640   39.1970    9.2140 C   0  0  0  0  0  0  0  0  0  0  0  0
   12.5970   39.2410    7.9940 O   0  0  0  0  0  0  0  0  0  0  0  0
   13.7620   38.4400    9.6440 O   0  0  0  0  0  1  0  0  0  0  0  0
   11.3020   39.4860   11.1940 N   0  0  0  0  0  0  0  0  0  0  0  0
   11.1560   38.0730   11.5560 C   0  0  0  0  0  0  0  0  0  0  0  0
   10.2730   37.2520   10.6070 C   0  0  0  0  0  0  0  0  0  0  0  0
   10.3530   35.8370   10.5830 C   0  0  0  0  0  0  0  0  0  0  0  0
    9.5460   35.0810    9.7160 C   0  0  0  0  0  0  0  0  0  0  0  0
    8.6430   35.7260    8.8540 C   0  0  0  0  0  0  0  0  0  0  0  0
    8.5460   37.1300    8.8590 C   0  0  0  0  0  0  0  0  0  0  0  0
    7.6350   37.7620    7.9870 C   0  0  0  0  0  0  0  0  0  0  0  0
    7.5210   39.1630    7.9740 C   0  0  0  0  0  0  0  0  0  0  0  0
    8.3200   39.9370    8.8350 C   0  0  0  0  0  0  0  0  0  0  0  0
    9.2320   39.3130    9.7070 C   0  0  0  0  0  0  0  0  0  0  0  0
    9.3590   37.9020    9.7340 C   0  0  0  0  0  0  0  0  0  0  0  0
   10.6590   40.5010   11.8900 C   0  0  0  0  0  0  0  0  0  0  0  0
    9.7760   40.4740   12.9890 C   0  0  0  0  0  0  0  0  0  0  0  0
    9.2710   41.6760   13.5110 C   0  0  0  0  0  0  0  0  0  0  0  0
    9.6510   42.9010   12.9360 C   0  0  0  0  0  0  0  0  0  0  0  0
    9.1710   44.0630   13.4370 F   0  0  0  0  0  0  0  0  0  0  0  0
   10.5310   42.9190   11.8360 C   0  0  0  0  0  0  0  0  0  0  0  0
   11.0510   41.7240   11.2830 C   0  0  0  0  0  0  0  0  0  0  0  0
   12.2435   42.0265    6.4463 H   0  0  0  0  0  0  0  0  0  0  0  0
   12.7275   43.0747    5.0703 H   0  0  0  0  0  0  0  0  0  0  0  0
   13.1666   41.3329    5.0703 H   0  0  0  0  0  0  0  0  0  0  0  0
   14.7283   41.6518    6.9075 H   0  0  0  0  0  0  0  0  0  0  0  0
   15.0781   42.9150    5.6822 H   0  0  0  0  0  0  0  0  0  0  0  0
   14.1929   42.3557   11.5216 H   0  0  0  0  0  0  0  0  0  0  0  0
   14.2685   40.8698   10.5150 H   0  0  0  0  0  0  0  0  0  0  0  0
   15.6436   42.0256   10.5150 H   0  0  0  0  0  0  0  0  0  0  0  0
   11.9801   43.4162    9.4160 H   0  0  0  0  0  0  0  0  0  0  0  0
   12.3496   42.1006    8.2179 H   0  0  0  0  0  0  0  0  0  0  0  0
   12.1576   37.6184   11.5701 H   0  0  0  0  0  0  0  0  0  0  0  0
   10.6565   38.0551   12.5359 H   0  0  0  0  0  0  0  0  0  0  0  0
   11.0576   35.3229   11.2533 H   0  0  0  0  0  0  0  0  0  0  0  0
    9.6212   33.9836    9.7121 H   0  0  0  0  0  0  0  0  0  0  0  0
    8.0119   35.1335    8.1753 H   0  0  0  0  0  0  0  0  0  0  0  0
    7.0109   37.1557    7.3140 H   0  0  0  0  0  0  0  0  0  0  0  0
    6.8094   39.6524    7.2928 H   0  0  0  0  0  0  0  0  0  0  0  0
    8.2318   41.0334    8.8268 H   0  0  0  0  0  0  0  0  0  0  0  0
    9.8531   39.9277   10.3750 H   0  0  0  0  0  0  0  0  0  0  0  0
    9.4831   39.5129   13.4368 H   0  0  0  0  0  0  0  0  0  0  0  0
    8.5804   41.6589   14.3670 H   0  0  0  0  0  0  0  0  0  0  0  0
   10.8210   43.8847   11.3963 H   0  0  0  0  0  0  0  0  0  0  0  0
  1  2  1  0
  2  3  1  0
  3  4  1  0
  4  5  2  0
  4  6  1  0
  6  7  1  0
  6  8  1  0
  8  9  1  0
  9 10  2  0
 10 11  1  0
 11 12  2  0
 11 13  1  0
 10 14  1  0
 14 15  1  0
 15 16  1  0
 16 17  2  0
 17 18  1  0
 18 19  2  0
 19 20  1  0
 20 21  2  0
 21 22  1  0
 22 23  2  0
 23 24  1  0
 24 25  2  0
 14 26  1  0
 26 27  2  0
 27 28  1  0
 28 29  2  0
 29 30  1  0
 29 31  1  0
 31 32  2  0
 32  9  1  0
 25 16  1  0
 32 26  1  0
 25 20  1  0
  1 33  1  0
  1 34  1  0
  1 35  1  0
  2 36  1  0
  2 37  1  0
  7 38  1  0
  7 39  1  0
  7 40  1  0
  8 41  1  0
  8 42  1  0
 15 43  1  0
 15 44  1  0
 17 45  1  0
 18 46  1  0
 19 47  1  0
 21 48  1  0
 22 49  1  0
 23 50  1  0
 24 51  1  0
 27 52  1  0
 28 53  1  0
 31 54  1  0
M  CHG  1  13  -1
M  END
>  <meeko>  (475) 
{"free_energy": -5.17, "intermolecular_energy": -7.55, "internal_energy": -1.35, "cluster_size": 74, "cluster_id": 18, "rank_in_cluster": 53}

$$$$

     RDKit          3D

 54 57  0  0  0  0  0  0  0  0999 V2000
   16.3280   38.1640   12.7890 C   0  0  0  0  0  0  0  0  0  0  0  0
   15.7730   39.5430   12.4250 C   0  0  0  0  0  0  0  0  0  0  0  0
   15.3850   39.5450   11.0610 O   0  0  0  0  0  0  0  0  0  0  0  0
   14.0960   39.7670   10.7250 C   0  0  0  0  0  0  0  0  0  0  0  0
   13.5470   40.8650   10.8300 O   0  0  0  0  0  0  0  0  0  0  0  0
   13.5040   38.5910   10.2470 N   0  0  0  0  0  0  0  0  0  0  0  0
   14.2140   37.3070   10.2390 C   0  0  0  0  0  0  0  0  0  0  0  0
   12.1410   38.5920    9.6990 C   0  0  0  0  0  0  0  0  0  0  0  0
   11.1370   37.9970   10.6580 C   0  0  0  0  0  0  0  0  0  0  0  0
   11.1120   38.0670   12.0400 C   0  0  0  0  0  0  0  0  0  0  0  0
   12.0400   38.7740   12.9760 C   0  0  0  0  0  0  0  0  0  0  0  0
   13.0570   38.1710   13.3830 O   0  0  0  0  0  0  0  0  0  0  0  0
   11.7930   39.9380   13.3590 O   0  0  0  0  0  1  0  0  0  0  0  0
   10.0220   37.3050   12.5130 N   0  0  0  0  0  0  0  0  0  0  0  0
    9.5920   37.0950   13.8990 C   0  0  0  0  0  0  0  0  0  0  0  0
   10.3280   35.9690   14.6380 C   0  0  0  0  0  0  0  0  0  0  0  0
   10.0290   34.6090   14.3720 C   0  0  0  0  0  0  0  0  0  0  0  0
   10.7000   33.5750   15.0460 C   0  0  0  0  0  0  0  0  0  0  0  0
   11.6820   33.8810   16.0020 C   0  0  0  0  0  0  0  0  0  0  0  0
   11.9950   35.2240   16.2850 C   0  0  0  0  0  0  0  0  0  0  0  0
   12.9840   35.5130   17.2490 C   0  0  0  0  0  0  0  0  0  0  0  0
   13.3140   36.8470   17.5480 C   0  0  0  0  0  0  0  0  0  0  0  0
   12.6540   37.8960   16.8830 C   0  0  0  0  0  0  0  0  0  0  0  0
   11.6660   37.6140   15.9210 C   0  0  0  0  0  0  0  0  0  0  0  0
   11.3220   36.2760   15.6070 C   0  0  0  0  0  0  0  0  0  0  0  0
    9.3500   36.7480   11.4340 C   0  0  0  0  0  0  0  0  0  0  0  0
    8.2210   35.9050   11.3630 C   0  0  0  0  0  0  0  0  0  0  0  0
    7.7360   35.4880   10.1120 C   0  0  0  0  0  0  0  0  0  0  0  0
    8.3790   35.9150    8.9380 C   0  0  0  0  0  0  0  0  0  0  0  0
    7.9130   35.5190    7.7290 F   0  0  0  0  0  0  0  0  0  0  0  0
    9.5080   36.7530    9.0160 C   0  0  0  0  0  0  0  0  0  0  0  0
   10.0240   37.1840   10.2620 C   0  0  0  0  0  0  0  0  0  0  0  0
   16.3689   38.0624   13.8835 H   0  0  0  0  0  0  0  0  0  0  0  0
   15.6738   37.3839   12.3725 H   0  0  0  0  0  0  0  0  0  0  0  0
   17.3402   38.0545   12.3725 H   0  0  0  0  0  0  0  0  0  0  0  0
   14.9001   39.7664   13.0560 H   0  0  0  0  0  0  0  0  0  0  0  0
   16.5464   40.3076   12.5901 H   0  0  0  0  0  0  0  0  0  0  0  0
   14.3942   36.9812   11.2741 H   0  0  0  0  0  0  0  0  0  0  0  0
   13.6041   36.5540    9.7185 H   0  0  0  0  0  0  0  0  0  0  0  0
   15.1760   37.4232    9.7185 H   0  0  0  0  0  0  0  0  0  0  0  0
   11.8487   39.6295    9.4796 H   0  0  0  0  0  0  0  0  0  0  0  0
   12.1439   37.9743    8.7888 H   0  0  0  0  0  0  0  0  0  0  0  0
    9.7544   38.0312   14.4532 H   0  0  0  0  0  0  0  0  0  0  0  0
    8.5346   36.7955   13.8530 H   0  0  0  0  0  0  0  0  0  0  0  0
    9.2597   34.3595   13.6264 H   0  0  0  0  0  0  0  0  0  0  0  0
   10.4561   32.5254   14.8248 H   0  0  0  0  0  0  0  0  0  0  0  0
   12.2068   33.0711   16.5299 H   0  0  0  0  0  0  0  0  0  0  0  0
   13.4990   34.6916   17.7687 H   0  0  0  0  0  0  0  0  0  0  0  0
   14.0858   37.0693   18.2996 H   0  0  0  0  0  0  0  0  0  0  0  0
   12.9108   38.9400   17.1155 H   0  0  0  0  0  0  0  0  0  0  0  0
   11.1552   38.4417   15.4072 H   0  0  0  0  0  0  0  0  0  0  0  0
    7.7212   35.5747   12.2856 H   0  0  0  0  0  0  0  0  0  0  0  0
    6.8566   34.8300   10.0520 H   0  0  0  0  0  0  0  0  0  0  0  0
   10.0000   37.0801    8.0881 H   0  0  0  0  0  0  0  0  0  0  0  0
  1  2  1  0
  2  3  1  0
  3  4  1  0
  4  5  2  0
  4  6  1  0
  6  7  1  0
  6  8  1  0
  8  9  1  0
  9 10  2  0
 10 11  1  0
 11 12  2  0
 11 13  1  0
 10 14  1  0
 14 15  1  0
 15 16  1  0
 16 17  2  0
 17 18  1  0
 18 19  2  0
 19 20  1  0
 20 21  2  0
 21 22  1  0
 22 23  2  0
 23 24  1  0
 24 25  2  0
 14 26  1  0
 26 27  2  0
 27 28  1  0
 28 29  2  0
 29 30  1  0
 29 31  1  0
 31 32  2  0
 32  9  1  0
 25 16  1  0
 32 26  1  0
 25 20  1  0
  1 33  1  0
  1 34  1  0
  1 35  1  0
  2 36  1  0
  2 37  1  0
  7 38  1  0
  7 39  1  0
  7 40  1  0
  8 41  1  0
  8 42  1  0
 15 43  1  0
 15 44  1  0
 17 45  1  0
 18 46  1  0
 19 47  1  0
 21 48  1  0
 22 49  1  0
 23 50  1  0
 24 51  1  0
 27 52  1  0
 28 53  1  0
 31 54  1  0
M  CHG  1  13  -1
M  END
>  <meeko>  (476) 
{"free_energy": -5.16, "intermolecular_energy": -7.55, "internal_energy": -2.15, "cluster_size": 191, "cluster_id": 13, "rank_in_cluster": 142}

$$$$

     RDKit          3D

 54 57  0  0  0  0  0  0  0  0999 V2000
    6.9320   35.1690   18.4990 C   0  0  0  0  0  0  0  0  0  0  0  0
    7.0000   34.9860   16.9810 C   0  0  0  0  0  0  0  0  0  0  0  0
    8.2650   34.4470   16.6320 O   0  0  0  0  0  0  0  0  0  0  0  0
    8.8340   34.7660   15.4500 C   0  0  0  0  0  0  0  0  0  0  0  0
    8.4450   34.3220   14.3690 O   0  0  0  0  0  0  0  0  0  0  0  0
    9.8970   35.6580   15.6410 N   0  0  0  0  0  0  0  0  0  0  0  0
   10.5560   36.3380   14.5210 C   0  0  0  0  0  0  0  0  0  0  0  0
   10.4270   35.9350   16.9830 C   0  0  0  0  0  0  0  0  0  0  0  0
   11.5970   36.8900   16.9500 C   0  0  0  0  0  0  0  0  0  0  0  0
   12.9380   36.6250   17.1670 C   0  0  0  0  0  0  0  0  0  0  0  0
   13.6180   35.3240   17.4590 C   0  0  0  0  0  0  0  0  0  0  0  0
   14.3730   35.2520   18.4530 O   0  0  0  0  0  0  0  0  0  0  0  0
   13.4500   34.3360   16.7120 O   0  0  0  0  0  1  0  0  0  0  0  0
   13.6580   37.8370   17.0970 N   0  0  0  0  0  0  0  0  0  0  0  0
   15.0990   38.0490   17.2510 C   0  0  0  0  0  0  0  0  0  0  0  0
   15.9190   37.8650   15.9670 C   0  0  0  0  0  0  0  0  0  0  0  0
   15.8630   38.8240   14.9250 C   0  0  0  0  0  0  0  0  0  0  0  0
   16.6120   38.6590   13.7480 C   0  0  0  0  0  0  0  0  0  0  0  0
   17.4310   37.5300   13.5890 C   0  0  0  0  0  0  0  0  0  0  0  0
   17.5030   36.5620   14.6080 C   0  0  0  0  0  0  0  0  0  0  0  0
   18.3300   35.4330   14.4310 C   0  0  0  0  0  0  0  0  0  0  0  0
   18.4160   34.4530   15.4360 C   0  0  0  0  0  0  0  0  0  0  0  0
   17.6750   34.6010   16.6220 C   0  0  0  0  0  0  0  0  0  0  0  0
   16.8470   35.7240   16.8050 C   0  0  0  0  0  0  0  0  0  0  0  0
   16.7480   36.7220   15.8030 C   0  0  0  0  0  0  0  0  0  0  0  0
   12.7760   38.8780   16.8360 C   0  0  0  0  0  0  0  0  0  0  0  0
   12.9790   40.2650   16.6870 C   0  0  0  0  0  0  0  0  0  0  0  0
   11.8880   41.1070   16.4120 C   0  0  0  0  0  0  0  0  0  0  0  0
   10.6000   40.5600   16.2860 C   0  0  0  0  0  0  0  0  0  0  0  0
    9.5450   41.3650   16.0170 F   0  0  0  0  0  0  0  0  0  0  0  0
   10.4050   39.1730   16.4390 C   0  0  0  0  0  0  0  0  0  0  0  0
   11.4830   38.3010   16.7230 C   0  0  0  0  0  0  0  0  0  0  0  0
    7.2740   34.2486   18.9950 H   0  0  0  0  0  0  0  0  0  0  0  0
    7.5785   36.0078   18.7965 H   0  0  0  0  0  0  0  0  0  0  0  0
    5.8947   35.3821   18.7965 H   0  0  0  0  0  0  0  0  0  0  0  0
    6.2051   34.2980   16.6575 H   0  0  0  0  0  0  0  0  0  0  0  0
    6.8632   35.9584   16.4852 H   0  0  0  0  0  0  0  0  0  0  0  0
   11.2719   37.0767   14.9106 H   0  0  0  0  0  0  0  0  0  0  0  0
   11.0901   35.5986   13.9062 H   0  0  0  0  0  0  0  0  0  0  0  0
    9.8002   36.8487   13.9062 H   0  0  0  0  0  0  0  0  0  0  0  0
    9.6269   36.3764   17.5954 H   0  0  0  0  0  0  0  0  0  0  0  0
   10.7799   34.9842   17.4090 H   0  0  0  0  0  0  0  0  0  0  0  0
   15.2568   39.0756   17.6132 H   0  0  0  0  0  0  0  0  0  0  0  0
   15.4508   37.2805   17.9550 H   0  0  0  0  0  0  0  0  0  0  0  0
   15.2231   39.7113   15.0396 H   0  0  0  0  0  0  0  0  0  0  0  0
   16.5567   39.4148   12.9507 H   0  0  0  0  0  0  0  0  0  0  0  0
   18.0171   37.4018   12.6670 H   0  0  0  0  0  0  0  0  0  0  0  0
   18.9099   35.3187   13.5033 H   0  0  0  0  0  0  0  0  0  0  0  0
   19.0610   33.5732   15.2948 H   0  0  0  0  0  0  0  0  0  0  0  0
   17.7429   33.8361   17.4096 H   0  0  0  0  0  0  0  0  0  0  0  0
   16.2702   35.8286   17.7358 H   0  0  0  0  0  0  0  0  0  0  0  0
   13.9898   40.6876   16.7858 H   0  0  0  0  0  0  0  0  0  0  0  0
   12.0418   42.1900   16.2959 H   0  0  0  0  0  0  0  0  0  0  0  0
    9.3915   38.7583   16.3353 H   0  0  0  0  0  0  0  0  0  0  0  0
  1  2  1  0
  2  3  1  0
  3  4  1  0
  4  5  2  0
  4  6  1  0
  6  7  1  0
  6  8  1  0
  8  9  1  0
  9 10  2  0
 10 11  1  0
 11 12  2  0
 11 13  1  0
 10 14  1  0
 14 15  1  0
 15 16  1  0
 16 17  2  0
 17 18  1  0
 18 19  2  0
 19 20  1  0
 20 21  2  0
 21 22  1  0
 22 23  2  0
 23 24  1  0
 24 25  2  0
 14 26  1  0
 26 27  2  0
 27 28  1  0
 28 29  2  0
 29 30  1  0
 29 31  1  0
 31 32  2  0
 32  9  1  0
 25 16  1  0
 32 26  1  0
 25 20  1  0
  1 33  1  0
  1 34  1  0
  1 35  1  0
  2 36  1  0
  2 37  1  0
  7 38  1  0
  7 39  1  0
  7 40  1  0
  8 41  1  0
  8 42  1  0
 15 43  1  0
 15 44  1  0
 17 45  1  0
 18 46  1  0
 19 47  1  0
 21 48  1  0
 22 49  1  0
 23 50  1  0
 24 51  1  0
 27 52  1  0
 28 53  1  0
 31 54  1  0
M  CHG  1  13  -1
M  END
>  <meeko>  (477) 
{"free_energy": -5.17, "intermolecular_energy": -7.56, "internal_energy": -1.78, "cluster_size": 14, "cluster_id": 110, "rank_in_cluster": 3}

$$$$

     RDKit          3D

 54 57  0  0  0  0  0  0  0  0999 V2000
    8.4090   41.3580   10.7740 C   0  0  0  0  0  0  0  0  0  0  0  0
    8.8800   40.2240    9.8600 C   0  0  0  0  0  0  0  0  0  0  0  0
   10.1200   39.7250   10.3360 O   0  0  0  0  0  0  0  0  0  0  0  0
   10.6200   38.5730    9.8420 C   0  0  0  0  0  0  0  0  0  0  0  0
   11.2360   38.5020    8.7770 O   0  0  0  0  0  0  0  0  0  0  0  0
   10.3430   37.5060   10.7070 N   0  0  0  0  0  0  0  0  0  0  0  0
   10.9820   36.1940   10.5580 C   0  0  0  0  0  0  0  0  0  0  0  0
    9.3700   37.6440   11.7990 C   0  0  0  0  0  0  0  0  0  0  0  0
    9.9660   37.3020   13.1440 C   0  0  0  0  0  0  0  0  0  0  0  0
    9.6400   36.2630   13.9980 C   0  0  0  0  0  0  0  0  0  0  0  0
    8.6380   35.1660   13.8260 C   0  0  0  0  0  0  0  0  0  0  0  0
    8.5120   34.3190   14.7370 O   0  0  0  0  0  0  0  0  0  0  0  0
    7.9520   35.0880   12.7830 O   0  0  0  0  0  1  0  0  0  0  0  0
   10.4170   36.3780   15.1710 N   0  0  0  0  0  0  0  0  0  0  0  0
   10.4250   35.5040   16.3470 C   0  0  0  0  0  0  0  0  0  0  0  0
    9.9070   36.1550   17.6370 C   0  0  0  0  0  0  0  0  0  0  0  0
   10.7850   36.8610   18.4970 C   0  0  0  0  0  0  0  0  0  0  0  0
   10.3160   37.4580   19.6790 C   0  0  0  0  0  0  0  0  0  0  0  0
    8.9580   37.3580   20.0250 C   0  0  0  0  0  0  0  0  0  0  0  0
    8.0670   36.6600   19.1890 C   0  0  0  0  0  0  0  0  0  0  0  0
    6.7070   36.5700   19.5530 C   0  0  0  0  0  0  0  0  0  0  0  0
    5.7990   35.8770   18.7330 C   0  0  0  0  0  0  0  0  0  0  0  0
    6.2490   35.2740   17.5450 C   0  0  0  0  0  0  0  0  0  0  0  0
    7.6050   35.3600   17.1760 C   0  0  0  0  0  0  0  0  0  0  0  0
    8.5340   36.0540   17.9910 C   0  0  0  0  0  0  0  0  0  0  0  0
   11.2400   37.4920   15.0670 C   0  0  0  0  0  0  0  0  0  0  0  0
   12.1830   38.0500   15.9550 C   0  0  0  0  0  0  0  0  0  0  0  0
   12.8980   39.2010   15.5850 C   0  0  0  0  0  0  0  0  0  0  0  0
   12.6710   39.7890   14.3290 C   0  0  0  0  0  0  0  0  0  0  0  0
   13.3600   40.8960   13.9650 F   0  0  0  0  0  0  0  0  0  0  0  0
   11.7250   39.2280   13.4490 C   0  0  0  0  0  0  0  0  0  0  0  0
   10.9840   38.0730   13.7960 C   0  0  0  0  0  0  0  0  0  0  0  0
    8.5337   41.0578   11.8249 H   0  0  0  0  0  0  0  0  0  0  0  0
    9.0069   42.2601   10.5770 H   0  0  0  0  0  0  0  0  0  0  0  0
    7.3480   41.5711   10.5770 H   0  0  0  0  0  0  0  0  0  0  0  0
    8.1334   39.4161    9.8616 H   0  0  0  0  0  0  0  0  0  0  0  0
    9.0034   40.6030    8.8348 H   0  0  0  0  0  0  0  0  0  0  0  0
   11.1878   35.7714   11.5525 H   0  0  0  0  0  0  0  0  0  0  0  0
   10.3112   35.5201   10.0049 H   0  0  0  0  0  0  0  0  0  0  0  0
   11.9261   36.3067   10.0049 H   0  0  0  0  0  0  0  0  0  0  0  0
    9.0121   38.6838   11.8247 H   0  0  0  0  0  0  0  0  0  0  0  0
    8.5465   36.9405   11.6070 H   0  0  0  0  0  0  0  0  0  0  0  0
    9.7943   34.6298   16.1278 H   0  0  0  0  0  0  0  0  0  0  0  0
   11.4777   35.2445   16.5325 H   0  0  0  0  0  0  0  0  0  0  0  0
   11.8502   36.9427   18.2348 H   0  0  0  0  0  0  0  0  0  0  0  0
   11.0118   38.0036   20.3334 H   0  0  0  0  0  0  0  0  0  0  0  0
    8.5909   37.8259   20.9504 H   0  0  0  0  0  0  0  0  0  0  0  0
    6.3557   37.0436   20.4816 H   0  0  0  0  0  0  0  0  0  0  0  0
    4.7394   35.8067   19.0201 H   0  0  0  0  0  0  0  0  0  0  0  0
    5.5392   34.7333   16.9018 H   0  0  0  0  0  0  0  0  0  0  0  0
    7.9470   34.8836   16.2454 H   0  0  0  0  0  0  0  0  0  0  0  0
   12.3583   37.5844   16.9361 H   0  0  0  0  0  0  0  0  0  0  0  0
   13.6328   39.6404   16.2757 H   0  0  0  0  0  0  0  0  0  0  0  0
   11.5581   39.6986   12.4689 H   0  0  0  0  0  0  0  0  0  0  0  0
  1  2  1  0
  2  3  1  0
  3  4  1  0
  4  5  2  0
  4  6  1  0
  6  7  1  0
  6  8  1  0
  8  9  1  0
  9 10  2  0
 10 11  1  0
 11 12  2  0
 11 13  1  0
 10 14  1  0
 14 15  1  0
 15 16  1  0
 16 17  2  0
 17 18  1  0
 18 19  2  0
 19 20  1  0
 20 21  2  0
 21 22  1  0
 22 23  2  0
 23 24  1  0
 24 25  2  0
 14 26  1  0
 26 27  2  0
 27 28  1  0
 28 29  2  0
 29 30  1  0
 29 31  1  0
 31 32  2  0
 32  9  1  0
 25 16  1  0
 32 26  1  0
 25 20  1  0
  1 33  1  0
  1 34  1  0
  1 35  1  0
  2 36  1  0
  2 37  1  0
  7 38  1  0
  7 39  1  0
  7 40  1  0
  8 41  1  0
  8 42  1  0
 15 43  1  0
 15 44  1  0
 17 45  1  0
 18 46  1  0
 19 47  1  0
 21 48  1  0
 22 49  1  0
 23 50  1  0
 24 51  1  0
 27 52  1  0
 28 53  1  0
 31 54  1  0
M  CHG  1  13  -1
M  END
>  <meeko>  (478) 
{"free_energy": -6.47, "intermolecular_energy": -8.86, "internal_energy": -1.78, "cluster_size": 136, "cluster_id": 23, "rank_in_cluster": 9}

$$$$

     RDKit          3D

 54 57  0  0  0  0  0  0  0  0999 V2000
    6.2500   37.9480   20.8090 C   0  0  0  0  0  0  0  0  0  0  0  0
    6.9280   36.6150   20.4880 C   0  0  0  0  0  0  0  0  0  0  0  0
    7.1160   36.5120   19.0860 O   0  0  0  0  0  0  0  0  0  0  0  0
    8.1660   37.1250   18.4980 C   0  0  0  0  0  0  0  0  0  0  0  0
    8.8260   38.0110   19.0430 O   0  0  0  0  0  0  0  0  0  0  0  0
    8.3810   36.6070   17.2140 N   0  0  0  0  0  0  0  0  0  0  0  0
    7.3010   36.4870   16.2290 C   0  0  0  0  0  0  0  0  0  0  0  0
    9.7060   36.1260   16.7990 C   0  0  0  0  0  0  0  0  0  0  0  0
   10.0760   36.5960   15.4120 C   0  0  0  0  0  0  0  0  0  0  0  0
    9.6220   36.1320   14.1900 C   0  0  0  0  0  0  0  0  0  0  0  0
    8.6170   35.0660   13.8880 C   0  0  0  0  0  0  0  0  0  0  0  0
    8.4450   34.1500   14.7200 O   0  0  0  0  0  0  0  0  0  0  0  0
    7.9750   35.0820   12.8150 O   0  0  0  0  0  1  0  0  0  0  0  0
   10.2940   36.8280   13.1620 N   0  0  0  0  0  0  0  0  0  0  0  0
   10.1360   36.6850   11.7120 C   0  0  0  0  0  0  0  0  0  0  0  0
    9.4730   37.8800   11.0150 C   0  0  0  0  0  0  0  0  0  0  0  0
    9.5500   39.1810   11.5730 C   0  0  0  0  0  0  0  0  0  0  0  0
    8.9440   40.2780   10.9370 C   0  0  0  0  0  0  0  0  0  0  0  0
    8.2470   40.0950    9.7320 C   0  0  0  0  0  0  0  0  0  0  0  0
    8.1540   38.8130    9.1590 C   0  0  0  0  0  0  0  0  0  0  0  0
    7.4490   38.6470    7.9490 C   0  0  0  0  0  0  0  0  0  0  0  0
    7.3430   37.3750    7.3590 C   0  0  0  0  0  0  0  0  0  0  0  0
    7.9440   36.2650    7.9780 C   0  0  0  0  0  0  0  0  0  0  0  0
    8.6480   36.4230    9.1870 C   0  0  0  0  0  0  0  0  0  0  0  0
    8.7650   37.6980    9.7950 C   0  0  0  0  0  0  0  0  0  0  0  0
   11.1790   37.7370   13.7270 C   0  0  0  0  0  0  0  0  0  0  0  0
   12.0840   38.6510   13.1490 C   0  0  0  0  0  0  0  0  0  0  0  0
   12.8690   39.4750   13.9730 C   0  0  0  0  0  0  0  0  0  0  0  0
   12.7460   39.3840   15.3700 C   0  0  0  0  0  0  0  0  0  0  0  0
   13.4980   40.1780   16.1690 F   0  0  0  0  0  0  0  0  0  0  0  0
   11.8430   38.4660   15.9400 C   0  0  0  0  0  0  0  0  0  0  0  0
   11.0430   37.6180   15.1360 C   0  0  0  0  0  0  0  0  0  0  0  0
    6.1861   38.0735   21.8999 H   0  0  0  0  0  0  0  0  0  0  0  0
    6.8387   38.7717   20.3790 H   0  0  0  0  0  0  0  0  0  0  0  0
    5.2376   37.9574   20.3790 H   0  0  0  0  0  0  0  0  0  0  0  0
    7.9034   36.5672   20.9943 H   0  0  0  0  0  0  0  0  0  0  0  0
    6.2956   35.7856   20.8375 H   0  0  0  0  0  0  0  0  0  0  0  0
    6.3387   36.3801   16.7511 H   0  0  0  0  0  0  0  0  0  0  0  0
    7.2779   37.3881   15.5985 H   0  0  0  0  0  0  0  0  0  0  0  0
    7.4763   35.6028   15.5985 H   0  0  0  0  0  0  0  0  0  0  0  0
   10.4570   36.4986   17.5112 H   0  0  0  0  0  0  0  0  0  0  0  0
    9.6768   35.0265   16.7859 H   0  0  0  0  0  0  0  0  0  0  0  0
   11.1339   36.5428   11.2716 H   0  0  0  0  0  0  0  0  0  0  0  0
    9.4662   35.8263   11.5572 H   0  0  0  0  0  0  0  0  0  0  0  0
   10.0921   39.3341   12.5178 H   0  0  0  0  0  0  0  0  0  0  0  0
    9.0158   41.2807   11.3836 H   0  0  0  0  0  0  0  0  0  0  0  0
    7.7732   40.9545    9.2353 H   0  0  0  0  0  0  0  0  0  0  0  0
    6.9800   39.5162    7.4647 H   0  0  0  0  0  0  0  0  0  0  0  0
    6.7914   37.2488    6.4157 H   0  0  0  0  0  0  0  0  0  0  0  0
    7.8640   35.2698    7.5162 H   0  0  0  0  0  0  0  0  0  0  0  0
    9.1122   35.5476    9.6648 H   0  0  0  0  0  0  0  0  0  0  0  0
   12.1752   38.7188   12.0549 H   0  0  0  0  0  0  0  0  0  0  0  0
   13.5771   40.1885   13.5264 H   0  0  0  0  0  0  0  0  0  0  0  0
   11.7570   38.4062   17.0350 H   0  0  0  0  0  0  0  0  0  0  0  0
  1  2  1  0
  2  3  1  0
  3  4  1  0
  4  5  2  0
  4  6  1  0
  6  7  1  0
  6  8  1  0
  8  9  1  0
  9 10  2  0
 10 11  1  0
 11 12  2  0
 11 13  1  0
 10 14  1  0
 14 15  1  0
 15 16  1  0
 16 17  2  0
 17 18  1  0
 18 19  2  0
 19 20  1  0
 20 21  2  0
 21 22  1  0
 22 23  2  0
 23 24  1  0
 24 25  2  0
 14 26  1  0
 26 27  2  0
 27 28  1  0
 28 29  2  0
 29 30  1  0
 29 31  1  0
 31 32  2  0
 32  9  1  0
 25 16  1  0
 32 26  1  0
 25 20  1  0
  1 33  1  0
  1 34  1  0
  1 35  1  0
  2 36  1  0
  2 37  1  0
  7 38  1  0
  7 39  1  0
  7 40  1  0
  8 41  1  0
  8 42  1  0
 15 43  1  0
 15 44  1  0
 17 45  1  0
 18 46  1  0
 19 47  1  0
 21 48  1  0
 22 49  1  0
 23 50  1  0
 24 51  1  0
 27 52  1  0
 28 53  1  0
 31 54  1  0
M  CHG  1  13  -1
M  END
>  <meeko>  (479) 
{"free_energy": -6.98, "intermolecular_energy": -9.37, "internal_energy": -1.3, "cluster_size": 263, "cluster_id": 1, "rank_in_cluster": 104}

$$$$

     RDKit          3D

 54 57  0  0  0  0  0  0  0  0999 V2000
    8.0810   37.6580    8.7120 C   0  0  0  0  0  0  0  0  0  0  0  0
    8.1830   39.1610    8.9870 C   0  0  0  0  0  0  0  0  0  0  0  0
    8.1870   39.3800   10.3880 O   0  0  0  0  0  0  0  0  0  0  0  0
    8.8610   40.4290   10.9060 C   0  0  0  0  0  0  0  0  0  0  0  0
    8.5400   41.6030   10.7140 O   0  0  0  0  0  0  0  0  0  0  0  0
    9.9440   39.9860   11.6770 N   0  0  0  0  0  0  0  0  0  0  0  0
   11.0010   39.1340   11.1200 C   0  0  0  0  0  0  0  0  0  0  0  0
   10.0590   40.3310   13.1000 C   0  0  0  0  0  0  0  0  0  0  0  0
    9.8080   39.1440   13.9990 C   0  0  0  0  0  0  0  0  0  0  0  0
   10.0050   39.0340   15.3640 C   0  0  0  0  0  0  0  0  0  0  0  0
   10.4870   40.0570   16.3440 C   0  0  0  0  0  0  0  0  0  0  0  0
    9.6660   40.8770   16.8070 O   0  0  0  0  0  0  0  0  0  0  0  0
   11.6910   40.1020   16.6770 O   0  0  0  0  0  1  0  0  0  0  0  0
    9.6940   37.7160   15.7630 N   0  0  0  0  0  0  0  0  0  0  0  0
    9.7430   37.1370   17.1090 C   0  0  0  0  0  0  0  0  0  0  0  0
    8.3880   36.6760   17.6620 C   0  0  0  0  0  0  0  0  0  0  0  0
    7.8680   35.3990   17.3380 C   0  0  0  0  0  0  0  0  0  0  0  0
    6.6270   34.9720   17.8420 C   0  0  0  0  0  0  0  0  0  0  0  0
    5.8820   35.8180   18.6800 C   0  0  0  0  0  0  0  0  0  0  0  0
    6.3760   37.0920   19.0160 C   0  0  0  0  0  0  0  0  0  0  0  0
    5.6140   37.9280   19.8580 C   0  0  0  0  0  0  0  0  0  0  0  0
    6.0880   39.2050   20.2060 C   0  0  0  0  0  0  0  0  0  0  0  0
    7.3280   39.6500   19.7120 C   0  0  0  0  0  0  0  0  0  0  0  0
    8.0930   38.8200   18.8700 C   0  0  0  0  0  0  0  0  0  0  0  0
    7.6310   37.5300   18.5100 C   0  0  0  0  0  0  0  0  0  0  0  0
    9.2970   36.9830   14.6530 C   0  0  0  0  0  0  0  0  0  0  0  0
    8.9010   35.6380   14.5070 C   0  0  0  0  0  0  0  0  0  0  0  0
    8.5340   35.1480   13.2430 C   0  0  0  0  0  0  0  0  0  0  0  0
    8.5630   36.0040   12.1290 C   0  0  0  0  0  0  0  0  0  0  0  0
    8.2070   35.5390   10.9070 F   0  0  0  0  0  0  0  0  0  0  0  0
    8.9640   37.3460   12.2810 C   0  0  0  0  0  0  0  0  0  0  0  0
    9.3450   37.8670   13.5410 C   0  0  0  0  0  0  0  0  0  0  0  0
    8.0440   37.1123    9.6664 H   0  0  0  0  0  0  0  0  0  0  0  0
    7.1668   37.4518    8.1360 H   0  0  0  0  0  0  0  0  0  0  0  0
    8.9590   37.3302    8.1360 H   0  0  0  0  0  0  0  0  0  0  0  0
    9.1139   39.5524    8.5509 H   0  0  0  0  0  0  0  0  0  0  0  0
    7.3240   39.6783    8.5348 H   0  0  0  0  0  0  0  0  0  0  0  0
   11.5716   38.6741   11.9403 H   0  0  0  0  0  0  0  0  0  0  0  0
   10.5482   38.3454   10.5011 H   0  0  0  0  0  0  0  0  0  0  0  0
   11.6755   39.7439   10.5011 H   0  0  0  0  0  0  0  0  0  0  0  0
   11.0733   40.7113   13.2910 H   0  0  0  0  0  0  0  0  0  0  0  0
    9.2963   41.0910   13.3249 H   0  0  0  0  0  0  0  0  0  0  0  0
   10.4156   36.2670   17.0828 H   0  0  0  0  0  0  0  0  0  0  0  0
   10.0936   37.9373   17.7773 H   0  0  0  0  0  0  0  0  0  0  0  0
    8.4444   34.7306   16.6815 H   0  0  0  0  0  0  0  0  0  0  0  0
    6.2397   33.9762   17.5803 H   0  0  0  0  0  0  0  0  0  0  0  0
    4.9109   35.4841   19.0742 H   0  0  0  0  0  0  0  0  0  0  0  0
    4.6447   37.5795   20.2441 H   0  0  0  0  0  0  0  0  0  0  0  0
    5.4909   39.8546   20.8629 H   0  0  0  0  0  0  0  0  0  0  0  0
    7.7007   40.6485   19.9841 H   0  0  0  0  0  0  0  0  0  0  0  0
    9.0604   39.1774   18.4874 H   0  0  0  0  0  0  0  0  0  0  0  0
    8.8794   34.9726   15.3826 H   0  0  0  0  0  0  0  0  0  0  0  0
    8.2252   34.0988   13.1256 H   0  0  0  0  0  0  0  0  0  0  0  0
    8.9815   38.0044   11.4000 H   0  0  0  0  0  0  0  0  0  0  0  0
  1  2  1  0
  2  3  1  0
  3  4  1  0
  4  5  2  0
  4  6  1  0
  6  7  1  0
  6  8  1  0
  8  9  1  0
  9 10  2  0
 10 11  1  0
 11 12  2  0
 11 13  1  0
 10 14  1  0
 14 15  1  0
 15 16  1  0
 16 17  2  0
 17 18  1  0
 18 19  2  0
 19 20  1  0
 20 21  2  0
 21 22  1  0
 22 23  2  0
 23 24  1  0
 24 25  2  0
 14 26  1  0
 26 27  2  0
 27 28  1  0
 28 29  2  0
 29 30  1  0
 29 31  1  0
 31 32  2  0
 32  9  1  0
 25 16  1  0
 32 26  1  0
 25 20  1  0
  1 33  1  0
  1 34  1  0
  1 35  1  0
  2 36  1  0
  2 37  1  0
  7 38  1  0
  7 39  1  0
  7 40  1  0
  8 41  1  0
  8 42  1  0
 15 43  1  0
 15 44  1  0
 17 45  1  0
 18 46  1  0
 19 47  1  0
 21 48  1  0
 22 49  1  0
 23 50  1  0
 24 51  1  0
 27 52  1  0
 28 53  1  0
 31 54  1  0
M  CHG  1  13  -1
M  END
>  <meeko>  (480) 
{"free_energy": -5.25, "intermolecular_energy": -7.63, "internal_energy": -1.59, "cluster_size": 25, "cluster_id": 117, "rank_in_cluster": 3}

$$$$

     RDKit          3D

 54 57  0  0  0  0  0  0  0  0999 V2000
   16.7810   37.7440   10.9990 C   0  0  0  0  0  0  0  0  0  0  0  0
   15.5350   36.8800   10.7950 C   0  0  0  0  0  0  0  0  0  0  0  0
   14.8610   37.3010    9.6190 O   0  0  0  0  0  0  0  0  0  0  0  0
   14.5220   38.5990    9.4630 C   0  0  0  0  0  0  0  0  0  0  0  0
   14.6050   39.1960    8.3890 O   0  0  0  0  0  0  0  0  0  0  0  0
   14.0680   39.1370   10.6740 N   0  0  0  0  0  0  0  0  0  0  0  0
   14.7670   40.2350   11.3500 C   0  0  0  0  0  0  0  0  0  0  0  0
   12.8750   38.6040   11.3450 C   0  0  0  0  0  0  0  0  0  0  0  0
   11.6650   39.4880   11.1500 C   0  0  0  0  0  0  0  0  0  0  0  0
   11.4800   40.8020   11.5420 C   0  0  0  0  0  0  0  0  0  0  0  0
   12.4240   41.7330   12.2340 C   0  0  0  0  0  0  0  0  0  0  0  0
   12.7850   41.4650   13.4000 O   0  0  0  0  0  0  0  0  0  0  0  0
   12.8290   42.7690   11.6630 O   0  0  0  0  0  1  0  0  0  0  0  0
   10.1680   41.1960   11.2030 N   0  0  0  0  0  0  0  0  0  0  0  0
    9.5250   42.4960   11.4130 C   0  0  0  0  0  0  0  0  0  0  0  0
    9.1260   42.7920   12.8650 C   0  0  0  0  0  0  0  0  0  0  0  0
   10.0620   42.6440   13.9190 C   0  0  0  0  0  0  0  0  0  0  0  0
    9.7010   42.9140   15.2500 C   0  0  0  0  0  0  0  0  0  0  0  0
    8.3960   43.3350   15.5530 C   0  0  0  0  0  0  0  0  0  0  0  0
    7.4480   43.4880   14.5230 C   0  0  0  0  0  0  0  0  0  0  0  0
    6.1420   43.9120   14.8450 C   0  0  0  0  0  0  0  0  0  0  0  0
    5.1780   44.0710   13.8330 C   0  0  0  0  0  0  0  0  0  0  0  0
    5.5200   43.8070   12.4950 C   0  0  0  0  0  0  0  0  0  0  0  0
    6.8220   43.3830   12.1670 C   0  0  0  0  0  0  0  0  0  0  0  0
    7.8050   43.2180   13.1740 C   0  0  0  0  0  0  0  0  0  0  0  0
    9.5130   40.1330   10.5950 C   0  0  0  0  0  0  0  0  0  0  0  0
    8.2030   40.0010   10.0890 C   0  0  0  0  0  0  0  0  0  0  0  0
    7.7960   38.7900    9.5050 C   0  0  0  0  0  0  0  0  0  0  0  0
    8.7000   37.7160    9.4260 C   0  0  0  0  0  0  0  0  0  0  0  0
    8.3150   36.5480    8.8600 F   0  0  0  0  0  0  0  0  0  0  0  0
   10.0050   37.8540    9.9360 C   0  0  0  0  0  0  0  0  0  0  0  0
   10.4420   39.0600   10.5370 C   0  0  0  0  0  0  0  0  0  0  0  0
   16.9660   37.8723   12.0757 H   0  0  0  0  0  0  0  0  0  0  0  0
   17.6482   37.2524   10.5340 H   0  0  0  0  0  0  0  0  0  0  0  0
   16.6247   38.7285   10.5340 H   0  0  0  0  0  0  0  0  0  0  0  0
   15.8315   35.8258   10.6914 H   0  0  0  0  0  0  0  0  0  0  0  0
   14.8662   36.9865   11.6618 H   0  0  0  0  0  0  0  0  0  0  0  0
   14.6850   40.1063   12.4394 H   0  0  0  0  0  0  0  0  0  0  0  0
   15.8277   40.2288   11.0588 H   0  0  0  0  0  0  0  0  0  0  0  0
   14.3125   41.1934   11.0588 H   0  0  0  0  0  0  0  0  0  0  0  0
   12.6545   37.6071   10.9357 H   0  0  0  0  0  0  0  0  0  0  0  0
   13.0877   38.5572   12.4232 H   0  0  0  0  0  0  0  0  0  0  0  0
   10.2231   43.2798   11.0838 H   0  0  0  0  0  0  0  0  0  0  0  0
    8.5899   42.4750   10.8341 H   0  0  0  0  0  0  0  0  0  0  0  0
   11.0861   42.3129   13.6918 H   0  0  0  0  0  0  0  0  0  0  0  0
   10.4411   42.7955   16.0551 H   0  0  0  0  0  0  0  0  0  0  0  0
    8.1142   43.5453   16.5953 H   0  0  0  0  0  0  0  0  0  0  0  0
    5.8761   44.1193   15.8921 H   0  0  0  0  0  0  0  0  0  0  0  0
    4.1599   44.4008   14.0876 H   0  0  0  0  0  0  0  0  0  0  0  0
    4.7680   43.9321   11.7020 H   0  0  0  0  0  0  0  0  0  0  0  0
    7.0789   43.1776   11.1173 H   0  0  0  0  0  0  0  0  0  0  0  0
    7.5009   40.8454   10.1516 H   0  0  0  0  0  0  0  0  0  0  0  0
    6.7745   38.6824    9.1112 H   0  0  0  0  0  0  0  0  0  0  0  0
   10.7015   37.0055    9.8661 H   0  0  0  0  0  0  0  0  0  0  0  0
  1  2  1  0
  2  3  1  0
  3  4  1  0
  4  5  2  0
  4  6  1  0
  6  7  1  0
  6  8  1  0
  8  9  1  0
  9 10  2  0
 10 11  1  0
 11 12  2  0
 11 13  1  0
 10 14  1  0
 14 15  1  0
 15 16  1  0
 16 17  2  0
 17 18  1  0
 18 19  2  0
 19 20  1  0
 20 21  2  0
 21 22  1  0
 22 23  2  0
 23 24  1  0
 24 25  2  0
 14 26  1  0
 26 27  2  0
 27 28  1  0
 28 29  2  0
 29 30  1  0
 29 31  1  0
 31 32  2  0
 32  9  1  0
 25 16  1  0
 32 26  1  0
 25 20  1  0
  1 33  1  0
  1 34  1  0
  1 35  1  0
  2 36  1  0
  2 37  1  0
  7 38  1  0
  7 39  1  0
  7 40  1  0
  8 41  1  0
  8 42  1  0
 15 43  1  0
 15 44  1  0
 17 45  1  0
 18 46  1  0
 19 47  1  0
 21 48  1  0
 22 49  1  0
 23 50  1  0
 24 51  1  0
 27 52  1  0
 28 53  1  0
 31 54  1  0
M  CHG  1  13  -1
M  END
>  <meeko>  (481) 
{"free_energy": -4.87, "intermolecular_energy": -7.26, "internal_energy": -1.37, "cluster_size": 24, "cluster_id": 83, "rank_in_cluster": 9}

$$$$

     RDKit          3D

 54 57  0  0  0  0  0  0  0  0999 V2000
    6.5930   34.9870   17.7670 C   0  0  0  0  0  0  0  0  0  0  0  0
    8.0980   34.7100   17.7240 C   0  0  0  0  0  0  0  0  0  0  0  0
    8.7550   35.7950   17.0900 O   0  0  0  0  0  0  0  0  0  0  0  0
    8.4600   36.1100   15.8100 C   0  0  0  0  0  0  0  0  0  0  0  0
    7.3800   36.5910   15.4620 O   0  0  0  0  0  0  0  0  0  0  0  0
    9.5420   35.8180   14.9700 N   0  0  0  0  0  0  0  0  0  0  0  0
   10.9280   35.8320   15.4510 C   0  0  0  0  0  0  0  0  0  0  0  0
    9.3420   35.5110   13.5480 C   0  0  0  0  0  0  0  0  0  0  0  0
    9.3620   36.7510   12.6860 C   0  0  0  0  0  0  0  0  0  0  0  0
    9.7930   38.0250   13.0110 C   0  0  0  0  0  0  0  0  0  0  0  0
   10.3910   38.5340   14.2840 C   0  0  0  0  0  0  0  0  0  0  0  0
   11.6360   38.5660   14.3920 O   0  0  0  0  0  0  0  0  0  0  0  0
    9.6590   38.9020   15.2290 O   0  0  0  0  0  1  0  0  0  0  0  0
    9.5620   38.8770   11.9090 N   0  0  0  0  0  0  0  0  0  0  0  0
    9.8650   40.3060   11.7850 C   0  0  0  0  0  0  0  0  0  0  0  0
   10.8780   40.6570   10.6870 C   0  0  0  0  0  0  0  0  0  0  0  0
   10.7110   41.8170    9.8890 C   0  0  0  0  0  0  0  0  0  0  0  0
   11.6360   42.1430    8.8830 C   0  0  0  0  0  0  0  0  0  0  0  0
   12.7460   41.3130    8.6540 C   0  0  0  0  0  0  0  0  0  0  0  0
   12.9330   40.1550    9.4310 C   0  0  0  0  0  0  0  0  0  0  0  0
   14.0520   39.3330    9.1870 C   0  0  0  0  0  0  0  0  0  0  0  0
   14.2590   38.1700    9.9510 C   0  0  0  0  0  0  0  0  0  0  0  0
   13.3450   37.8280   10.9640 C   0  0  0  0  0  0  0  0  0  0  0  0
   12.2240   38.6440   11.2120 C   0  0  0  0  0  0  0  0  0  0  0  0
   12.0010   39.8180   10.4520 C   0  0  0  0  0  0  0  0  0  0  0  0
    8.9830   38.1470   10.8790 C   0  0  0  0  0  0  0  0  0  0  0  0
    8.5490   38.5220    9.5910 C   0  0  0  0  0  0  0  0  0  0  0  0
    7.9950   37.5590    8.7310 C   0  0  0  0  0  0  0  0  0  0  0  0
    7.8780   36.2260    9.1610 C   0  0  0  0  0  0  0  0  0  0  0  0
    7.3490   35.2920    8.3350 F   0  0  0  0  0  0  0  0  0  0  0  0
    8.3100   35.8600   10.4500 C   0  0  0  0  0  0  0  0  0  0  0  0
    8.8660   36.8090   11.3420 C   0  0  0  0  0  0  0  0  0  0  0  0
    6.2612   35.0481   18.8140 H   0  0  0  0  0  0  0  0  0  0  0  0
    6.3808   35.9393   17.2590 H   0  0  0  0  0  0  0  0  0  0  0  0
    6.0556   34.1727   17.2590 H   0  0  0  0  0  0  0  0  0  0  0  0
    8.4805   34.5969   18.7491 H   0  0  0  0  0  0  0  0  0  0  0  0
    8.2869   33.7842   17.1608 H   0  0  0  0  0  0  0  0  0  0  0  0
   10.9344   35.8321   16.5510 H   0  0  0  0  0  0  0  0  0  0  0  0
   11.4535   34.9391   15.0813 H   0  0  0  0  0  0  0  0  0  0  0  0
   11.4353   36.7353   15.0813 H   0  0  0  0  0  0  0  0  0  0  0  0
   10.1444   34.8360   13.2155 H   0  0  0  0  0  0  0  0  0  0  0  0
    8.3527   35.0422   13.4407 H   0  0  0  0  0  0  0  0  0  0  0  0
    8.9266   40.8370   11.5670 H   0  0  0  0  0  0  0  0  0  0  0  0
   10.3242   40.6086   12.7377 H   0  0  0  0  0  0  0  0  0  0  0  0
    9.8439   42.4718   10.0602 H   0  0  0  0  0  0  0  0  0  0  0  0
   11.4911   43.0480    8.2748 H   0  0  0  0  0  0  0  0  0  0  0  0
   13.4699   41.5687    7.8662 H   0  0  0  0  0  0  0  0  0  0  0  0
   14.7667   39.6023    8.3954 H   0  0  0  0  0  0  0  0  0  0  0  0
   15.1326   37.5303    9.7569 H   0  0  0  0  0  0  0  0  0  0  0  0
   13.5062   36.9205   11.5644 H   0  0  0  0  0  0  0  0  0  0  0  0
   11.5139   38.3663   12.0048 H   0  0  0  0  0  0  0  0  0  0  0  0
    8.6440   39.5667    9.2600 H   0  0  0  0  0  0  0  0  0  0  0  0
    7.6543   37.8470    7.7255 H   0  0  0  0  0  0  0  0  0  0  0  0
    8.2134   34.8125   10.7717 H   0  0  0  0  0  0  0  0  0  0  0  0
  1  2  1  0
  2  3  1  0
  3  4  1  0
  4  5  2  0
  4  6  1  0
  6  7  1  0
  6  8  1  0
  8  9  1  0
  9 10  2  0
 10 11  1  0
 11 12  2  0
 11 13  1  0
 10 14  1  0
 14 15  1  0
 15 16  1  0
 16 17  2  0
 17 18  1  0
 18 19  2  0
 19 20  1  0
 20 21  2  0
 21 22  1  0
 22 23  2  0
 23 24  1  0
 24 25  2  0
 14 26  1  0
 26 27  2  0
 27 28  1  0
 28 29  2  0
 29 30  1  0
 29 31  1  0
 31 32  2  0
 32  9  1  0
 25 16  1  0
 32 26  1  0
 25 20  1  0
  1 33  1  0
  1 34  1  0
  1 35  1  0
  2 36  1  0
  2 37  1  0
  7 38  1  0
  7 39  1  0
  7 40  1  0
  8 41  1  0
  8 42  1  0
 15 43  1  0
 15 44  1  0
 17 45  1  0
 18 46  1  0
 19 47  1  0
 21 48  1  0
 22 49  1  0
 23 50  1  0
 24 51  1  0
 27 52  1  0
 28 53  1  0
 31 54  1  0
M  CHG  1  13  -1
M  END
>  <meeko>  (482) 
{"free_energy": -7.07, "intermolecular_energy": -9.46, "internal_energy": -1.69, "cluster_size": 318, "cluster_id": 5, "rank_in_cluster": 13}

$$$$

     RDKit          3D

 54 57  0  0  0  0  0  0  0  0999 V2000
    9.5650   36.6780    9.7850 C   0  0  0  0  0  0  0  0  0  0  0  0
    8.7110   36.2100   10.9660 C   0  0  0  0  0  0  0  0  0  0  0  0
    9.4930   36.2410   12.1490 O   0  0  0  0  0  0  0  0  0  0  0  0
    9.0500   36.9100   13.2350 C   0  0  0  0  0  0  0  0  0  0  0  0
    8.1390   36.5030   13.9580 O   0  0  0  0  0  0  0  0  0  0  0  0
    9.7720   38.0980   13.4080 N   0  0  0  0  0  0  0  0  0  0  0  0
    9.7650   39.1680   12.4040 C   0  0  0  0  0  0  0  0  0  0  0  0
   10.6010   38.3190   14.6000 C   0  0  0  0  0  0  0  0  0  0  0  0
   10.0360   37.6390   15.8250 C   0  0  0  0  0  0  0  0  0  0  0  0
    9.5670   38.2110   16.9950 C   0  0  0  0  0  0  0  0  0  0  0  0
    9.4520   39.6540   17.3720 C   0  0  0  0  0  0  0  0  0  0  0  0
    8.4890   40.0140   18.0830 O   0  0  0  0  0  0  0  0  0  0  0  0
   10.2920   40.4870   16.9660 O   0  0  0  0  0  1  0  0  0  0  0  0
    9.1960   37.1820   17.8860 N   0  0  0  0  0  0  0  0  0  0  0  0
    8.6380   37.3040   19.2360 C   0  0  0  0  0  0  0  0  0  0  0  0
    7.2650   37.9830   19.3080 C   0  0  0  0  0  0  0  0  0  0  0  0
    7.0140   39.0180   20.2440 C   0  0  0  0  0  0  0  0  0  0  0  0
    5.7580   39.6440   20.3130 C   0  0  0  0  0  0  0  0  0  0  0  0
    4.7260   39.2440   19.4480 C   0  0  0  0  0  0  0  0  0  0  0  0
    4.9490   38.2170   18.5110 C   0  0  0  0  0  0  0  0  0  0  0  0
    3.9010   37.8290   17.6510 C   0  0  0  0  0  0  0  0  0  0  0  0
    4.1010   36.8050   16.7070 C   0  0  0  0  0  0  0  0  0  0  0  0
    5.3520   36.1680   16.6220 C   0  0  0  0  0  0  0  0  0  0  0  0
    6.4020   36.5510   17.4780 C   0  0  0  0  0  0  0  0  0  0  0  0
    6.2180   37.5800   18.4340 C   0  0  0  0  0  0  0  0  0  0  0  0
    9.4270   35.9510   17.2860 C   0  0  0  0  0  0  0  0  0  0  0  0
    9.2430   34.6310   17.7470 C   0  0  0  0  0  0  0  0  0  0  0  0
    9.5570   33.5460   16.9120 C   0  0  0  0  0  0  0  0  0  0  0  0
   10.0530   33.7840   15.6180 C   0  0  0  0  0  0  0  0  0  0  0  0
   10.3550   32.7430   14.8070 F   0  0  0  0  0  0  0  0  0  0  0  0
   10.2390   35.1050   15.1660 C   0  0  0  0  0  0  0  0  0  0  0  0
    9.9370   36.2180   15.9880 C   0  0  0  0  0  0  0  0  0  0  0  0
   10.4713   37.1746   10.1619 H   0  0  0  0  0  0  0  0  0  0  0  0
    9.8504   35.8102    9.1722 H   0  0  0  0  0  0  0  0  0  0  0  0
    8.9871   37.3855    9.1722 H   0  0  0  0  0  0  0  0  0  0  0  0
    7.8442   36.8775   11.0805 H   0  0  0  0  0  0  0  0  0  0  0  0
    8.3584   35.1842   10.7832 H   0  0  0  0  0  0  0  0  0  0  0  0
    9.7586   40.1450   12.9094 H   0  0  0  0  0  0  0  0  0  0  0  0
   10.6637   39.0865   11.7750 H   0  0  0  0  0  0  0  0  0  0  0  0
    8.8674   39.0747   11.7750 H   0  0  0  0  0  0  0  0  0  0  0  0
   11.6090   37.9224   14.4084 H   0  0  0  0  0  0  0  0  0  0  0  0
   10.6259   39.4009   14.7969 H   0  0  0  0  0  0  0  0  0  0  0  0
    8.5418   36.2930   19.6587 H   0  0  0  0  0  0  0  0  0  0  0  0
    9.3303   37.9472   19.7991 H   0  0  0  0  0  0  0  0  0  0  0  0
    7.8154   39.3360   20.9271 H   0  0  0  0  0  0  0  0  0  0  0  0
    5.5829   40.4470   21.0441 H   0  0  0  0  0  0  0  0  0  0  0  0
    3.7425   39.7337   19.5027 H   0  0  0  0  0  0  0  0  0  0  0  0
    2.9234   38.3288   17.7184 H   0  0  0  0  0  0  0  0  0  0  0  0
    3.2817   36.5037   16.0377 H   0  0  0  0  0  0  0  0  0  0  0  0
    5.5106   35.3678   15.8841 H   0  0  0  0  0  0  0  0  0  0  0  0
    7.3762   36.0456   17.4037 H   0  0  0  0  0  0  0  0  0  0  0  0
    8.8538   34.4512   18.7600 H   0  0  0  0  0  0  0  0  0  0  0  0
    9.4156   32.5151   17.2687 H   0  0  0  0  0  0  0  0  0  0  0  0
   10.6277   35.2761   14.1513 H   0  0  0  0  0  0  0  0  0  0  0  0
  1  2  1  0
  2  3  1  0
  3  4  1  0
  4  5  2  0
  4  6  1  0
  6  7  1  0
  6  8  1  0
  8  9  1  0
  9 10  2  0
 10 11  1  0
 11 12  2  0
 11 13  1  0
 10 14  1  0
 14 15  1  0
 15 16  1  0
 16 17  2  0
 17 18  1  0
 18 19  2  0
 19 20  1  0
 20 21  2  0
 21 22  1  0
 22 23  2  0
 23 24  1  0
 24 25  2  0
 14 26  1  0
 26 27  2  0
 27 28  1  0
 28 29  2  0
 29 30  1  0
 29 31  1  0
 31 32  2  0
 32  9  1  0
 25 16  1  0
 32 26  1  0
 25 20  1  0
  1 33  1  0
  1 34  1  0
  1 35  1  0
  2 36  1  0
  2 37  1  0
  7 38  1  0
  7 39  1  0
  7 40  1  0
  8 41  1  0
  8 42  1  0
 15 43  1  0
 15 44  1  0
 17 45  1  0
 18 46  1  0
 19 47  1  0
 21 48  1  0
 22 49  1  0
 23 50  1  0
 24 51  1  0
 27 52  1  0
 28 53  1  0
 31 54  1  0
M  CHG  1  13  -1
M  END
>  <meeko>  (483) 
{"free_energy": -6.39, "intermolecular_energy": -8.78, "internal_energy": -1.42, "cluster_size": 49, "cluster_id": 27, "rank_in_cluster": 5}

$$$$

     RDKit          3D

 54 57  0  0  0  0  0  0  0  0999 V2000
    5.7450   36.0480   17.4040 C   0  0  0  0  0  0  0  0  0  0  0  0
    6.2820   34.6460   17.7010 C   0  0  0  0  0  0  0  0  0  0  0  0
    7.6690   34.7290   17.9890 O   0  0  0  0  0  0  0  0  0  0  0  0
    8.4080   35.7340   17.4730 C   0  0  0  0  0  0  0  0  0  0  0  0
    8.6090   36.7980   18.0610 O   0  0  0  0  0  0  0  0  0  0  0  0
    8.8990   35.3840   16.2090 N   0  0  0  0  0  0  0  0  0  0  0  0
   10.1450   34.6290   16.0370 C   0  0  0  0  0  0  0  0  0  0  0  0
    8.1980   35.7860   14.9820 C   0  0  0  0  0  0  0  0  0  0  0  0
    9.1320   36.3970   13.9640 C   0  0  0  0  0  0  0  0  0  0  0  0
   10.2100   37.2400   14.1720 C   0  0  0  0  0  0  0  0  0  0  0  0
   10.7810   37.7590   15.4540 C   0  0  0  0  0  0  0  0  0  0  0  0
   11.8970   37.3390   15.8270 O   0  0  0  0  0  0  0  0  0  0  0  0
   10.1450   38.5820   16.1470 O   0  0  0  0  0  1  0  0  0  0  0  0
   10.7470   37.6080   12.9200 N   0  0  0  0  0  0  0  0  0  0  0  0
   11.8960   38.4750   12.6420 C   0  0  0  0  0  0  0  0  0  0  0  0
   11.5950   39.6730   11.7310 C   0  0  0  0  0  0  0  0  0  0  0  0
   10.5530   40.5810   12.0470 C   0  0  0  0  0  0  0  0  0  0  0  0
   10.2740   41.6790   11.2160 C   0  0  0  0  0  0  0  0  0  0  0  0
   11.0300   41.8890   10.0510 C   0  0  0  0  0  0  0  0  0  0  0  0
   12.0690   41.0000    9.7150 C   0  0  0  0  0  0  0  0  0  0  0  0
   12.8180   41.2260    8.5420 C   0  0  0  0  0  0  0  0  0  0  0  0
   13.8590   40.3510    8.1860 C   0  0  0  0  0  0  0  0  0  0  0  0
   14.1550   39.2470    9.0050 C   0  0  0  0  0  0  0  0  0  0  0  0
   13.4110   39.0150   10.1780 C   0  0  0  0  0  0  0  0  0  0  0  0
   12.3580   39.8870   10.5510 C   0  0  0  0  0  0  0  0  0  0  0  0
   10.0120   37.0010   11.9100 C   0  0  0  0  0  0  0  0  0  0  0  0
   10.1240   37.0520   10.5050 C   0  0  0  0  0  0  0  0  0  0  0  0
    9.2350   36.3170    9.7040 C   0  0  0  0  0  0  0  0  0  0  0  0
    8.2380   35.5320   10.3090 C   0  0  0  0  0  0  0  0  0  0  0  0
    7.3800   34.8180    9.5420 F   0  0  0  0  0  0  0  0  0  0  0  0
    8.1300   35.4890   11.7130 C   0  0  0  0  0  0  0  0  0  0  0  0
    9.0070   36.2240   12.5460 C   0  0  0  0  0  0  0  0  0  0  0  0
    5.5444   36.5718   18.3502 H   0  0  0  0  0  0  0  0  0  0  0  0
    6.4911   36.6112   16.8242 H   0  0  0  0  0  0  0  0  0  0  0  0
    4.8136   35.9687   16.8242 H   0  0  0  0  0  0  0  0  0  0  0  0
    5.7510   34.2245   18.5672 H   0  0  0  0  0  0  0  0  0  0  0  0
    6.1242   33.9970   16.8270 H   0  0  0  0  0  0  0  0  0  0  0  0
   10.5604   34.3773   17.0240 H   0  0  0  0  0  0  0  0  0  0  0  0
    9.9390   33.7037   15.4790 H   0  0  0  0  0  0  0  0  0  0  0  0
   10.8699   35.2399   15.4790 H   0  0  0  0  0  0  0  0  0  0  0  0
    7.7229   34.8984   14.5387 H   0  0  0  0  0  0  0  0  0  0  0  0
    7.4514   36.5467   15.2540 H   0  0  0  0  0  0  0  0  0  0  0  0
   12.2731   38.8607   13.6007 H   0  0  0  0  0  0  0  0  0  0  0  0
   12.6283   37.8545   12.1046 H   0  0  0  0  0  0  0  0  0  0  0  0
    9.9542   40.4235   12.9562 H   0  0  0  0  0  0  0  0  0  0  0  0
    9.4631   42.3746   11.4779 H   0  0  0  0  0  0  0  0  0  0  0  0
   10.8102   42.7485    9.4007 H   0  0  0  0  0  0  0  0  0  0  0  0
   12.5867   42.0908    7.9027 H   0  0  0  0  0  0  0  0  0  0  0  0
   14.4404   40.5294    7.2694 H   0  0  0  0  0  0  0  0  0  0  0  0
   14.9704   38.5623    8.7286 H   0  0  0  0  0  0  0  0  0  0  0  0
   13.6497   38.1479   10.8113 H   0  0  0  0  0  0  0  0  0  0  0  0
   10.9069   37.6669   10.0371 H   0  0  0  0  0  0  0  0  0  0  0  0
    9.3184   36.3554    8.6078 H   0  0  0  0  0  0  0  0  0  0  0  0
    7.3457   34.8697   12.1726 H   0  0  0  0  0  0  0  0  0  0  0  0
  1  2  1  0
  2  3  1  0
  3  4  1  0
  4  5  2  0
  4  6  1  0
  6  7  1  0
  6  8  1  0
  8  9  1  0
  9 10  2  0
 10 11  1  0
 11 12  2  0
 11 13  1  0
 10 14  1  0
 14 15  1  0
 15 16  1  0
 16 17  2  0
 17 18  1  0
 18 19  2  0
 19 20  1  0
 20 21  2  0
 21 22  1  0
 22 23  2  0
 23 24  1  0
 24 25  2  0
 14 26  1  0
 26 27  2  0
 27 28  1  0
 28 29  2  0
 29 30  1  0
 29 31  1  0
 31 32  2  0
 32  9  1  0
 25 16  1  0
 32 26  1  0
 25 20  1  0
  1 33  1  0
  1 34  1  0
  1 35  1  0
  2 36  1  0
  2 37  1  0
  7 38  1  0
  7 39  1  0
  7 40  1  0
  8 41  1  0
  8 42  1  0
 15 43  1  0
 15 44  1  0
 17 45  1  0
 18 46  1  0
 19 47  1  0
 21 48  1  0
 22 49  1  0
 23 50  1  0
 24 51  1  0
 27 52  1  0
 28 53  1  0
 31 54  1  0
M  CHG  1  13  -1
M  END
>  <meeko>  (484) 
{"free_energy": -6.16, "intermolecular_energy": -8.55, "internal_energy": -1.74, "cluster_size": 251, "cluster_id": 26, "rank_in_cluster": 47}

$$$$

     RDKit          3D

 54 57  0  0  0  0  0  0  0  0999 V2000
    1.6220   37.0420   19.2340 C   0  0  0  0  0  0  0  0  0  0  0  0
    2.7160   38.0740   18.9490 C   0  0  0  0  0  0  0  0  0  0  0  0
    3.6280   38.0980   20.0350 O   0  0  0  0  0  0  0  0  0  0  0  0
    4.0160   36.9440   20.6190 C   0  0  0  0  0  0  0  0  0  0  0  0
    3.2630   36.2400   21.2940 O   0  0  0  0  0  0  0  0  0  0  0  0
    5.3630   36.6800   20.3390 N   0  0  0  0  0  0  0  0  0  0  0  0
    6.4370   37.0220   21.2780 C   0  0  0  0  0  0  0  0  0  0  0  0
    5.7710   36.0680   19.0680 C   0  0  0  0  0  0  0  0  0  0  0  0
    7.0430   36.6730   18.5240 C   0  0  0  0  0  0  0  0  0  0  0  0
    7.4770   37.9850   18.5930 C   0  0  0  0  0  0  0  0  0  0  0  0
    6.8390   39.1680   19.2500 C   0  0  0  0  0  0  0  0  0  0  0  0
    5.7010   39.5230   18.8730 O   0  0  0  0  0  0  0  0  0  0  0  0
    7.4400   39.8010   20.1450 O   0  0  0  0  0  1  0  0  0  0  0  0
    8.6950   38.0990   17.8880 N   0  0  0  0  0  0  0  0  0  0  0  0
    9.5300   39.2890   17.6980 C   0  0  0  0  0  0  0  0  0  0  0  0
   10.8530   39.2790   18.4750 C   0  0  0  0  0  0  0  0  0  0  0  0
   10.8690   39.4270   19.8840 C   0  0  0  0  0  0  0  0  0  0  0  0
   12.0790   39.4180   20.6000 C   0  0  0  0  0  0  0  0  0  0  0  0
   13.2970   39.2640   19.9180 C   0  0  0  0  0  0  0  0  0  0  0  0
   13.3070   39.1170   18.5180 C   0  0  0  0  0  0  0  0  0  0  0  0
   14.5400   38.9640   17.8500 C   0  0  0  0  0  0  0  0  0  0  0  0
   14.5750   38.8170   16.4510 C   0  0  0  0  0  0  0  0  0  0  0  0
   13.3750   38.8210   15.7180 C   0  0  0  0  0  0  0  0  0  0  0  0
   12.1410   38.9750   16.3790 C   0  0  0  0  0  0  0  0  0  0  0  0
   12.0880   39.1240   17.7870 C   0  0  0  0  0  0  0  0  0  0  0  0
    9.0400   36.8580   17.3680 C   0  0  0  0  0  0  0  0  0  0  0  0
   10.1360   36.4390   16.5850 C   0  0  0  0  0  0  0  0  0  0  0  0
   10.2440   35.0940   16.1950 C   0  0  0  0  0  0  0  0  0  0  0  0
    9.2590   34.1730   16.5900 C   0  0  0  0  0  0  0  0  0  0  0  0
    9.3600   32.8740   16.2200 F   0  0  0  0  0  0  0  0  0  0  0  0
    8.1660   34.5990   17.3680 C   0  0  0  0  0  0  0  0  0  0  0  0
    8.0250   35.9500   17.7710 C   0  0  0  0  0  0  0  0  0  0  0  0
    1.5004   36.9273   20.3212 H   0  0  0  0  0  0  0  0  0  0  0  0
    0.6734   37.3819   18.7928 H   0  0  0  0  0  0  0  0  0  0  0  0
    1.9060   36.0752   18.7928 H   0  0  0  0  0  0  0  0  0  0  0  0
    3.2491   37.8000   18.0267 H   0  0  0  0  0  0  0  0  0  0  0  0
    2.2628   39.0686   18.8246 H   0  0  0  0  0  0  0  0  0  0  0  0
    6.0729   36.9061   22.3095 H   0  0  0  0  0  0  0  0  0  0  0  0
    7.2942   36.3524   21.1143 H   0  0  0  0  0  0  0  0  0  0  0  0
    6.7492   38.0640   21.1143 H   0  0  0  0  0  0  0  0  0  0  0  0
    5.9316   34.9917   19.2289 H   0  0  0  0  0  0  0  0  0  0  0  0
    4.9713   36.2492   18.3348 H   0  0  0  0  0  0  0  0  0  0  0  0
    9.7634   39.3755   16.6265 H   0  0  0  0  0  0  0  0  0  0  0  0
    8.9498   40.1390   18.0865 H   0  0  0  0  0  0  0  0  0  0  0  0
    9.9200   39.5509   20.4262 H   0  0  0  0  0  0  0  0  0  0  0  0
   12.0717   39.5316   21.6941 H   0  0  0  0  0  0  0  0  0  0  0  0
   14.2437   39.2582   20.4781 H   0  0  0  0  0  0  0  0  0  0  0  0
   15.4778   38.9596   18.4250 H   0  0  0  0  0  0  0  0  0  0  0  0
   15.5379   38.6993   15.9325 H   0  0  0  0  0  0  0  0  0  0  0  0
   13.4002   38.7034   14.6246 H   0  0  0  0  0  0  0  0  0  0  0  0
   11.2083   38.9797   15.7959 H   0  0  0  0  0  0  0  0  0  0  0  0
   10.9048   37.1644   16.2804 H   0  0  0  0  0  0  0  0  0  0  0  0
   11.0960   34.7631   15.5830 H   0  0  0  0  0  0  0  0  0  0  0  0
    7.4036   33.8659   17.6701 H   0  0  0  0  0  0  0  0  0  0  0  0
  1  2  1  0
  2  3  1  0
  3  4  1  0
  4  5  2  0
  4  6  1  0
  6  7  1  0
  6  8  1  0
  8  9  1  0
  9 10  2  0
 10 11  1  0
 11 12  2  0
 11 13  1  0
 10 14  1  0
 14 15  1  0
 15 16  1  0
 16 17  2  0
 17 18  1  0
 18 19  2  0
 19 20  1  0
 20 21  2  0
 21 22  1  0
 22 23  2  0
 23 24  1  0
 24 25  2  0
 14 26  1  0
 26 27  2  0
 27 28  1  0
 28 29  2  0
 29 30  1  0
 29 31  1  0
 31 32  2  0
 32  9  1  0
 25 16  1  0
 32 26  1  0
 25 20  1  0
  1 33  1  0
  1 34  1  0
  1 35  1  0
  2 36  1  0
  2 37  1  0
  7 38  1  0
  7 39  1  0
  7 40  1  0
  8 41  1  0
  8 42  1  0
 15 43  1  0
 15 44  1  0
 17 45  1  0
 18 46  1  0
 19 47  1  0
 21 48  1  0
 22 49  1  0
 23 50  1  0
 24 51  1  0
 27 52  1  0
 28 53  1  0
 31 54  1  0
M  CHG  1  13  -1
M  END
>  <meeko>  (485) 
{"free_energy": -4.3, "intermolecular_energy": -6.68, "internal_energy": -1.47, "cluster_size": 47, "cluster_id": 16, "rank_in_cluster": 45}

$$$$

     RDKit          3D

 54 57  0  0  0  0  0  0  0  0999 V2000
    9.2710   35.3230   15.9250 C   0  0  0  0  0  0  0  0  0  0  0  0
    8.8990   34.6990   14.5780 C   0  0  0  0  0  0  0  0  0  0  0  0
    8.2560   35.6740   13.7730 O   0  0  0  0  0  0  0  0  0  0  0  0
    8.5580   35.7730   12.4610 C   0  0  0  0  0  0  0  0  0  0  0  0
    7.7490   35.5420   11.5600 O   0  0  0  0  0  0  0  0  0  0  0  0
    9.8890   36.1740   12.2910 N   0  0  0  0  0  0  0  0  0  0  0  0
   10.8140   35.4570   11.4070 C   0  0  0  0  0  0  0  0  0  0  0  0
   10.4370   37.3260   13.0210 C   0  0  0  0  0  0  0  0  0  0  0  0
    9.9470   38.6420   12.4630 C   0  0  0  0  0  0  0  0  0  0  0  0
    9.9040   39.8810   13.0770 C   0  0  0  0  0  0  0  0  0  0  0  0
   10.3570   40.2840   14.4450 C   0  0  0  0  0  0  0  0  0  0  0  0
   11.5390   40.0510   14.7790 O   0  0  0  0  0  0  0  0  0  0  0  0
    9.5630   40.8260   15.2440 O   0  0  0  0  0  1  0  0  0  0  0  0
    9.3080   40.8060   12.1930 N   0  0  0  0  0  0  0  0  0  0  0  0
    9.0600   42.2350   12.4020 C   0  0  0  0  0  0  0  0  0  0  0  0
   10.3200   43.0840   12.6120 C   0  0  0  0  0  0  0  0  0  0  0  0
   10.3740   44.0620   13.6370 C   0  0  0  0  0  0  0  0  0  0  0  0
   11.5270   44.8420   13.8340 C   0  0  0  0  0  0  0  0  0  0  0  0
   12.6470   44.6610   13.0070 C   0  0  0  0  0  0  0  0  0  0  0  0
   12.6170   43.6970   11.9810 C   0  0  0  0  0  0  0  0  0  0  0  0
   13.7510   43.5290   11.1590 C   0  0  0  0  0  0  0  0  0  0  0  0
   13.7440   42.5740   10.1280 C   0  0  0  0  0  0  0  0  0  0  0  0
   12.6010   41.7820    9.9160 C   0  0  0  0  0  0  0  0  0  0  0  0
   11.4650   41.9460   10.7320 C   0  0  0  0  0  0  0  0  0  0  0  0
   11.4560   42.9040   11.7760 C   0  0  0  0  0  0  0  0  0  0  0  0
    8.9690   40.1570   11.0130 C   0  0  0  0  0  0  0  0  0  0  0  0
    8.3460   40.6160    9.8340 C   0  0  0  0  0  0  0  0  0  0  0  0
    8.1260   39.7300    8.7660 C   0  0  0  0  0  0  0  0  0  0  0  0
    8.5310   38.3880    8.8800 C   0  0  0  0  0  0  0  0  0  0  0  0
    8.3260   37.5300    7.8540 F   0  0  0  0  0  0  0  0  0  0  0  0
    9.1490   37.9370   10.0620 C   0  0  0  0  0  0  0  0  0  0  0  0
    9.3780   38.8050   11.1570 C   0  0  0  0  0  0  0  0  0  0  0  0
    8.8927   34.6885   16.7400 H   0  0  0  0  0  0  0  0  0  0  0  0
   10.3653   35.4046   16.0016 H   0  0  0  0  0  0  0  0  0  0  0  0
    8.8224   36.3244   16.0016 H   0  0  0  0  0  0  0  0  0  0  0  0
    9.8099   34.3468   14.0718 H   0  0  0  0  0  0  0  0  0  0  0  0
    8.2207   33.8483   14.7400 H   0  0  0  0  0  0  0  0  0  0  0  0
   11.5393   34.8948   12.0136 H   0  0  0  0  0  0  0  0  0  0  0  0
   10.2480   34.7594   10.7722 H   0  0  0  0  0  0  0  0  0  0  0  0
   11.3485   36.1791   10.7722 H   0  0  0  0  0  0  0  0  0  0  0  0
   10.1335   37.2537   14.0758 H   0  0  0  0  0  0  0  0  0  0  0  0
   11.5317   37.3019   12.9164 H   0  0  0  0  0  0  0  0  0  0  0  0
    8.5297   42.6226   11.5197 H   0  0  0  0  0  0  0  0  0  0  0  0
    8.4755   42.3146   13.3304 H   0  0  0  0  0  0  0  0  0  0  0  0
    9.5004   44.2129   14.2881 H   0  0  0  0  0  0  0  0  0  0  0  0
   11.5516   45.5942   14.6362 H   0  0  0  0  0  0  0  0  0  0  0  0
   13.5484   45.2725   13.1606 H   0  0  0  0  0  0  0  0  0  0  0  0
   14.6447   44.1482   11.3257 H   0  0  0  0  0  0  0  0  0  0  0  0
   14.6299   42.4462    9.4886 H   0  0  0  0  0  0  0  0  0  0  0  0
   12.5945   41.0326    9.1108 H   0  0  0  0  0  0  0  0  0  0  0  0
   10.5750   41.3237   10.5570 H   0  0  0  0  0  0  0  0  0  0  0  0
    8.0325   41.6671    9.7506 H   0  0  0  0  0  0  0  0  0  0  0  0
    7.6394   40.0842    7.8453 H   0  0  0  0  0  0  0  0  0  0  0  0
    9.4615   36.8849   10.1366 H   0  0  0  0  0  0  0  0  0  0  0  0
  1  2  1  0
  2  3  1  0
  3  4  1  0
  4  5  2  0
  4  6  1  0
  6  7  1  0
  6  8  1  0
  8  9  1  0
  9 10  2  0
 10 11  1  0
 11 12  2  0
 11 13  1  0
 10 14  1  0
 14 15  1  0
 15 16  1  0
 16 17  2  0
 17 18  1  0
 18 19  2  0
 19 20  1  0
 20 21  2  0
 21 22  1  0
 22 23  2  0
 23 24  1  0
 24 25  2  0
 14 26  1  0
 26 27  2  0
 27 28  1  0
 28 29  2  0
 29 30  1  0
 29 31  1  0
 31 32  2  0
 32  9  1  0
 25 16  1  0
 32 26  1  0
 25 20  1  0
  1 33  1  0
  1 34  1  0
  1 35  1  0
  2 36  1  0
  2 37  1  0
  7 38  1  0
  7 39  1  0
  7 40  1  0
  8 41  1  0
  8 42  1  0
 15 43  1  0
 15 44  1  0
 17 45  1  0
 18 46  1  0
 19 47  1  0
 21 48  1  0
 22 49  1  0
 23 50  1  0
 24 51  1  0
 27 52  1  0
 28 53  1  0
 31 54  1  0
M  CHG  1  13  -1
M  END
>  <meeko>  (486) 
{"free_energy": -4.77, "intermolecular_energy": -7.16, "internal_energy": -2.0, "cluster_size": 318, "cluster_id": 5, "rank_in_cluster": 308}

$$$$

     RDKit          3D

 54 57  0  0  0  0  0  0  0  0999 V2000
    6.6020   38.7550    6.4000 C   0  0  0  0  0  0  0  0  0  0  0  0
    7.2780   37.7390    7.3250 C   0  0  0  0  0  0  0  0  0  0  0  0
    7.7030   38.3950    8.5080 O   0  0  0  0  0  0  0  0  0  0  0  0
    8.9060   38.1050    9.0480 C   0  0  0  0  0  0  0  0  0  0  0  0
    9.5560   37.1010    8.7530 O   0  0  0  0  0  0  0  0  0  0  0  0
    9.2880   39.0970    9.9600 N   0  0  0  0  0  0  0  0  0  0  0  0
    8.6470   40.4160    9.9920 C   0  0  0  0  0  0  0  0  0  0  0  0
   10.3780   38.8710   10.9190 C   0  0  0  0  0  0  0  0  0  0  0  0
   11.7140   39.3330   10.3860 C   0  0  0  0  0  0  0  0  0  0  0  0
   12.0830   40.5920    9.9450 C   0  0  0  0  0  0  0  0  0  0  0  0
   11.2870   41.8580    9.9010 C   0  0  0  0  0  0  0  0  0  0  0  0
   10.7350   42.2570   10.9490 O   0  0  0  0  0  0  0  0  0  0  0  0
   11.1610   42.4940    8.8320 O   0  0  0  0  0  1  0  0  0  0  0  0
   13.4130   40.5370    9.4770 N   0  0  0  0  0  0  0  0  0  0  0  0
   14.2300   41.6230    8.9270 C   0  0  0  0  0  0  0  0  0  0  0  0
   14.4360   41.5690    7.4070 C   0  0  0  0  0  0  0  0  0  0  0  0
   13.3590   41.8190    6.5200 C   0  0  0  0  0  0  0  0  0  0  0  0
   13.5430   41.7720    5.1270 C   0  0  0  0  0  0  0  0  0  0  0  0
   14.8080   41.4710    4.5960 C   0  0  0  0  0  0  0  0  0  0  0  0
   15.8920   41.2170    5.4570 C   0  0  0  0  0  0  0  0  0  0  0  0
   17.1550   40.9160    4.9050 C   0  0  0  0  0  0  0  0  0  0  0  0
   18.2520   40.6580    5.7460 C   0  0  0  0  0  0  0  0  0  0  0  0
   18.0890   40.7020    7.1420 C   0  0  0  0  0  0  0  0  0  0  0  0
   16.8310   41.0020    7.6990 C   0  0  0  0  0  0  0  0  0  0  0  0
   15.7140   41.2640    6.8670 C   0  0  0  0  0  0  0  0  0  0  0  0
   13.8950   39.2420    9.6170 C   0  0  0  0  0  0  0  0  0  0  0  0
   15.1380   38.6620    9.2930 C   0  0  0  0  0  0  0  0  0  0  0  0
   15.3670   37.3010    9.5550 C   0  0  0  0  0  0  0  0  0  0  0  0
   14.3520   36.5250   10.1430 C   0  0  0  0  0  0  0  0  0  0  0  0
   14.5670   35.2130   10.4020 F   0  0  0  0  0  0  0  0  0  0  0  0
   13.1110   37.1110   10.4610 C   0  0  0  0  0  0  0  0  0  0  0  0
   12.8500   38.4780   10.2020 C   0  0  0  0  0  0  0  0  0  0  0  0
    6.0931   39.5198    7.0050 H   0  0  0  0  0  0  0  0  0  0  0  0
    7.3614   39.2350    5.7653 H   0  0  0  0  0  0  0  0  0  0  0  0
    5.8659   38.2400    5.7653 H   0  0  0  0  0  0  0  0  0  0  0  0
    6.5633   36.9433    7.5822 H   0  0  0  0  0  0  0  0  0  0  0  0
    8.1468   37.2968    6.8155 H   0  0  0  0  0  0  0  0  0  0  0  0
    8.4967   40.7254   11.0368 H   0  0  0  0  0  0  0  0  0  0  0  0
    9.2896   41.1485    9.4816 H   0  0  0  0  0  0  0  0  0  0  0  0
    7.6740   40.3633    9.4816 H   0  0  0  0  0  0  0  0  0  0  0  0
   10.1558   39.4232   11.8440 H   0  0  0  0  0  0  0  0  0  0  0  0
   10.4450   37.7888   11.1042 H   0  0  0  0  0  0  0  0  0  0  0  0
   13.7403   42.5771    9.1720 H   0  0  0  0  0  0  0  0  0  0  0  0
   15.2278   41.5180    9.3780 H   0  0  0  0  0  0  0  0  0  0  0  0
   12.3645   42.0533    6.9276 H   0  0  0  0  0  0  0  0  0  0  0  0
   12.6966   41.9709    4.4532 H   0  0  0  0  0  0  0  0  0  0  0  0
   14.9516   41.4337    3.5061 H   0  0  0  0  0  0  0  0  0  0  0  0
   17.2820   40.8830    3.8129 H   0  0  0  0  0  0  0  0  0  0  0  0
   19.2353   40.4223    5.3129 H   0  0  0  0  0  0  0  0  0  0  0  0
   18.9467   40.5015    7.8009 H   0  0  0  0  0  0  0  0  0  0  0  0
   16.7139   41.0334    8.7923 H   0  0  0  0  0  0  0  0  0  0  0  0
   15.9285   39.2748    8.8352 H   0  0  0  0  0  0  0  0  0  0  0  0
   16.3352   36.8445    9.3016 H   0  0  0  0  0  0  0  0  0  0  0  0
   12.3267   36.4920   10.9212 H   0  0  0  0  0  0  0  0  0  0  0  0
  1  2  1  0
  2  3  1  0
  3  4  1  0
  4  5  2  0
  4  6  1  0
  6  7  1  0
  6  8  1  0
  8  9  1  0
  9 10  2  0
 10 11  1  0
 11 12  2  0
 11 13  1  0
 10 14  1  0
 14 15  1  0
 15 16  1  0
 16 17  2  0
 17 18  1  0
 18 19  2  0
 19 20  1  0
 20 21  2  0
 21 22  1  0
 22 23  2  0
 23 24  1  0
 24 25  2  0
 14 26  1  0
 26 27  2  0
 27 28  1  0
 28 29  2  0
 29 30  1  0
 29 31  1  0
 31 32  2  0
 32  9  1  0
 25 16  1  0
 32 26  1  0
 25 20  1  0
  1 33  1  0
  1 34  1  0
  1 35  1  0
  2 36  1  0
  2 37  1  0
  7 38  1  0
  7 39  1  0
  7 40  1  0
  8 41  1  0
  8 42  1  0
 15 43  1  0
 15 44  1  0
 17 45  1  0
 18 46  1  0
 19 47  1  0
 21 48  1  0
 22 49  1  0
 23 50  1  0
 24 51  1  0
 27 52  1  0
 28 53  1  0
 31 54  1  0
M  CHG  1  13  -1
M  END
>  <meeko>  (487) 
{"free_energy": -6.08, "intermolecular_energy": -8.46, "internal_energy": -1.78, "cluster_size": 64, "cluster_id": 66, "rank_in_cluster": 1}

$$$$

     RDKit          3D

 54 57  0  0  0  0  0  0  0  0999 V2000
   10.8920   38.3270   13.2450 C   0  0  0  0  0  0  0  0  0  0  0  0
   11.6830   39.5550   12.7890 C   0  0  0  0  0  0  0  0  0  0  0  0
   10.7880   40.6340   12.5750 O   0  0  0  0  0  0  0  0  0  0  0  0
   11.0280   41.5270   11.5910 C   0  0  0  0  0  0  0  0  0  0  0  0
   11.6790   42.5600   11.7570 O   0  0  0  0  0  0  0  0  0  0  0  0
   10.4440   41.1040   10.3900 N   0  0  0  0  0  0  0  0  0  0  0  0
    9.5210   39.9660   10.3300 C   0  0  0  0  0  0  0  0  0  0  0  0
   10.7530   41.7690    9.1170 C   0  0  0  0  0  0  0  0  0  0  0  0
   12.2250   41.7120    8.7850 C   0  0  0  0  0  0  0  0  0  0  0  0
   13.0070   42.6600    8.1480 C   0  0  0  0  0  0  0  0  0  0  0  0
   12.6360   44.0170    7.6390 C   0  0  0  0  0  0  0  0  0  0  0  0
   11.6270   44.1290    6.9100 O   0  0  0  0  0  0  0  0  0  0  0  0
   13.3330   45.0150    7.9210 O   0  0  0  0  0  1  0  0  0  0  0  0
   14.3130   42.1450    7.9970 N   0  0  0  0  0  0  0  0  0  0  0  0
   15.4810   42.7900    7.3930 C   0  0  0  0  0  0  0  0  0  0  0  0
   15.8180   42.3140    5.9730 C   0  0  0  0  0  0  0  0  0  0  0  0
   16.6720   41.2020    5.7640 C   0  0  0  0  0  0  0  0  0  0  0  0
   16.9830   40.7620    4.4660 C   0  0  0  0  0  0  0  0  0  0  0  0
   16.4480   41.4290    3.3510 C   0  0  0  0  0  0  0  0  0  0  0  0
   15.5990   42.5370    3.5330 C   0  0  0  0  0  0  0  0  0  0  0  0
   15.0710   43.1940    2.4030 C   0  0  0  0  0  0  0  0  0  0  0  0
   14.2210   44.3040    2.5600 C   0  0  0  0  0  0  0  0  0  0  0  0
   13.8970   44.7580    3.8510 C   0  0  0  0  0  0  0  0  0  0  0  0
   14.4210   44.1060    4.9840 C   0  0  0  0  0  0  0  0  0  0  0  0
   15.2790   42.9870    4.8430 C   0  0  0  0  0  0  0  0  0  0  0  0
   14.3660   40.8670    8.5380 C   0  0  0  0  0  0  0  0  0  0  0  0
   15.4140   39.9280    8.6300 C   0  0  0  0  0  0  0  0  0  0  0  0
   15.1910   38.6870    9.2490 C   0  0  0  0  0  0  0  0  0  0  0  0
   13.9220   38.3890    9.7750 C   0  0  0  0  0  0  0  0  0  0  0  0
   13.7010   37.1960   10.3760 F   0  0  0  0  0  0  0  0  0  0  0  0
   12.8790   39.3300    9.6760 C   0  0  0  0  0  0  0  0  0  0  0  0
   13.0710   40.5860    9.0520 C   0  0  0  0  0  0  0  0  0  0  0  0
   10.8698   38.2926   14.3442 H   0  0  0  0  0  0  0  0  0  0  0  0
    9.8637   38.3892   12.8593 H   0  0  0  0  0  0  0  0  0  0  0  0
   11.3738   37.4165   12.8593 H   0  0  0  0  0  0  0  0  0  0  0  0
   12.4130   39.8309   13.5642 H   0  0  0  0  0  0  0  0  0  0  0  0
   12.2148   39.3253   11.8539 H   0  0  0  0  0  0  0  0  0  0  0  0
    9.2635   39.6485   11.3512 H   0  0  0  0  0  0  0  0  0  0  0  0
    8.6060   40.2637    9.7969 H   0  0  0  0  0  0  0  0  0  0  0  0
   10.0011   39.1322    9.7969 H   0  0  0  0  0  0  0  0  0  0  0  0
   10.1892   41.2736    8.3128 H   0  0  0  0  0  0  0  0  0  0  0  0
   10.4695   42.8276    9.2120 H   0  0  0  0  0  0  0  0  0  0  0  0
   15.2921   43.8730    7.3549 H   0  0  0  0  0  0  0  0  0  0  0  0
   16.3425   42.5210    8.0219 H   0  0  0  0  0  0  0  0  0  0  0  0
   17.0977   40.6755    6.6309 H   0  0  0  0  0  0  0  0  0  0  0  0
   17.6453   39.8954    4.3229 H   0  0  0  0  0  0  0  0  0  0  0  0
   16.6928   41.0851    2.3352 H   0  0  0  0  0  0  0  0  0  0  0  0
   15.3248   42.8371    1.3939 H   0  0  0  0  0  0  0  0  0  0  0  0
   13.8113   44.8149    1.6762 H   0  0  0  0  0  0  0  0  0  0  0  0
   13.2321   45.6253    3.9763 H   0  0  0  0  0  0  0  0  0  0  0  0
   14.1615   44.4693    5.9893 H   0  0  0  0  0  0  0  0  0  0  0  0
   16.4052   40.1672    8.2174 H   0  0  0  0  0  0  0  0  0  0  0  0
   16.0058   37.9516    9.3218 H   0  0  0  0  0  0  0  0  0  0  0  0
   11.8917   39.0832   10.0935 H   0  0  0  0  0  0  0  0  0  0  0  0
  1  2  1  0
  2  3  1  0
  3  4  1  0
  4  5  2  0
  4  6  1  0
  6  7  1  0
  6  8  1  0
  8  9  1  0
  9 10  2  0
 10 11  1  0
 11 12  2  0
 11 13  1  0
 10 14  1  0
 14 15  1  0
 15 16  1  0
 16 17  2  0
 17 18  1  0
 18 19  2  0
 19 20  1  0
 20 21  2  0
 21 22  1  0
 22 23  2  0
 23 24  1  0
 24 25  2  0
 14 26  1  0
 26 27  2  0
 27 28  1  0
 28 29  2  0
 29 30  1  0
 29 31  1  0
 31 32  2  0
 32  9  1  0
 25 16  1  0
 32 26  1  0
 25 20  1  0
  1 33  1  0
  1 34  1  0
  1 35  1  0
  2 36  1  0
  2 37  1  0
  7 38  1  0
  7 39  1  0
  7 40  1  0
  8 41  1  0
  8 42  1  0
 15 43  1  0
 15 44  1  0
 17 45  1  0
 18 46  1  0
 19 47  1  0
 21 48  1  0
 22 49  1  0
 23 50  1  0
 24 51  1  0
 27 52  1  0
 28 53  1  0
 31 54  1  0
M  CHG  1  13  -1
M  END
>  <meeko>  (488) 
{"free_energy": -4.92, "intermolecular_energy": -7.3, "internal_energy": -2.07, "cluster_size": 7, "cluster_id": 171, "rank_in_cluster": 2}

$$$$

     RDKit          3D

 54 57  0  0  0  0  0  0  0  0999 V2000
   17.8330   37.1250   15.0180 C   0  0  0  0  0  0  0  0  0  0  0  0
   16.8690   37.6210   13.9370 C   0  0  0  0  0  0  0  0  0  0  0  0
   15.6840   38.1000   14.5520 O   0  0  0  0  0  0  0  0  0  0  0  0
   15.5610   39.4100   14.8560 C   0  0  0  0  0  0  0  0  0  0  0  0
   16.4610   40.2330   14.6820 O   0  0  0  0  0  0  0  0  0  0  0  0
   14.2880   39.6760   15.3760 N   0  0  0  0  0  0  0  0  0  0  0  0
   13.8400   39.1290   16.6620 C   0  0  0  0  0  0  0  0  0  0  0  0
   13.3210   40.5000   14.6390 C   0  0  0  0  0  0  0  0  0  0  0  0
   12.4840   39.6820   13.6830 C   0  0  0  0  0  0  0  0  0  0  0  0
   11.1320   39.3950   13.7430 C   0  0  0  0  0  0  0  0  0  0  0  0
   10.1070   39.8340   14.7410 C   0  0  0  0  0  0  0  0  0  0  0  0
    9.2460   40.6690   14.3890 O   0  0  0  0  0  0  0  0  0  0  0  0
   10.1230   39.3870   15.9080 O   0  0  0  0  0  1  0  0  0  0  0  0
   10.8000   38.5420   12.6680 N   0  0  0  0  0  0  0  0  0  0  0  0
    9.4910   37.9840   12.3190 C   0  0  0  0  0  0  0  0  0  0  0  0
    9.0060   38.3160   10.9020 C   0  0  0  0  0  0  0  0  0  0  0  0
    9.0780   39.6410   10.4010 C   0  0  0  0  0  0  0  0  0  0  0  0
    8.6350   39.9490    9.1040 C   0  0  0  0  0  0  0  0  0  0  0  0
    8.1090   38.9390    8.2820 C   0  0  0  0  0  0  0  0  0  0  0  0
    8.0250   37.6170    8.7570 C   0  0  0  0  0  0  0  0  0  0  0  0
    7.4930   36.6150    7.9180 C   0  0  0  0  0  0  0  0  0  0  0  0
    7.3990   35.2870    8.3720 C   0  0  0  0  0  0  0  0  0  0  0  0
    7.8380   34.9580    9.6660 C   0  0  0  0  0  0  0  0  0  0  0  0
    8.3690   35.9530   10.5090 C   0  0  0  0  0  0  0  0  0  0  0  0
    8.4710   37.2960   10.0680 C   0  0  0  0  0  0  0  0  0  0  0  0
   11.9420   38.2830   11.9210 C   0  0  0  0  0  0  0  0  0  0  0  0
   12.1540   37.4930   10.7720 C   0  0  0  0  0  0  0  0  0  0  0  0
   13.4360   37.4130   10.2040 C   0  0  0  0  0  0  0  0  0  0  0  0
   14.5000   38.1240   10.7830 C   0  0  0  0  0  0  0  0  0  0  0  0
   15.7380   38.0540   10.2370 F   0  0  0  0  0  0  0  0  0  0  0  0
   14.2820   38.9090   11.9320 C   0  0  0  0  0  0  0  0  0  0  0  0
   13.0030   39.0040   12.5320 C   0  0  0  0  0  0  0  0  0  0  0  0
   17.4127   37.3412   16.0113 H   0  0  0  0  0  0  0  0  0  0  0  0
   17.9785   36.0401   14.9097 H   0  0  0  0  0  0  0  0  0  0  0  0
   18.8004   37.6373   14.9097 H   0  0  0  0  0  0  0  0  0  0  0  0
   17.3423   38.4343   13.3673 H   0  0  0  0  0  0  0  0  0  0  0  0
   16.6226   36.7943   13.2545 H   0  0  0  0  0  0  0  0  0  0  0  0
   14.3039   39.6954   17.4830 H   0  0  0  0  0  0  0  0  0  0  0  0
   12.7453   39.2099   16.7335 H   0  0  0  0  0  0  0  0  0  0  0  0
   14.1350   38.0717   16.7335 H   0  0  0  0  0  0  0  0  0  0  0  0
   12.6535   40.9934   15.3608 H   0  0  0  0  0  0  0  0  0  0  0  0
   13.8862   41.2356   14.0478 H   0  0  0  0  0  0  0  0  0  0  0  0
    9.5498   36.8896   12.4127 H   0  0  0  0  0  0  0  0  0  0  0  0
    8.7662   38.4410   13.0088 H   0  0  0  0  0  0  0  0  0  0  0  0
    9.4869   40.4394   11.0377 H   0  0  0  0  0  0  0  0  0  0  0  0
    8.7001   40.9821    8.7319 H   0  0  0  0  0  0  0  0  0  0  0  0
    7.7626   39.1814    7.2665 H   0  0  0  0  0  0  0  0  0  0  0  0
    7.1505   36.8734    6.9051 H   0  0  0  0  0  0  0  0  0  0  0  0
    6.9830   34.5081    7.7161 H   0  0  0  0  0  0  0  0  0  0  0  0
    7.7665   33.9195   10.0215 H   0  0  0  0  0  0  0  0  0  0  0  0
    8.7082   35.6851   11.5205 H   0  0  0  0  0  0  0  0  0  0  0  0
   11.3165   36.9403   10.3214 H   0  0  0  0  0  0  0  0  0  0  0  0
   13.6061   36.7960    9.3093 H   0  0  0  0  0  0  0  0  0  0  0  0
   15.1249   39.4610   12.3734 H   0  0  0  0  0  0  0  0  0  0  0  0
  1  2  1  0
  2  3  1  0
  3  4  1  0
  4  5  2  0
  4  6  1  0
  6  7  1  0
  6  8  1  0
  8  9  1  0
  9 10  2  0
 10 11  1  0
 11 12  2  0
 11 13  1  0
 10 14  1  0
 14 15  1  0
 15 16  1  0
 16 17  2  0
 17 18  1  0
 18 19  2  0
 19 20  1  0
 20 21  2  0
 21 22  1  0
 22 23  2  0
 23 24  1  0
 24 25  2  0
 14 26  1  0
 26 27  2  0
 27 28  1  0
 28 29  2  0
 29 30  1  0
 29 31  1  0
 31 32  2  0
 32  9  1  0
 25 16  1  0
 32 26  1  0
 25 20  1  0
  1 33  1  0
  1 34  1  0
  1 35  1  0
  2 36  1  0
  2 37  1  0
  7 38  1  0
  7 39  1  0
  7 40  1  0
  8 41  1  0
  8 42  1  0
 15 43  1  0
 15 44  1  0
 17 45  1  0
 18 46  1  0
 19 47  1  0
 21 48  1  0
 22 49  1  0
 23 50  1  0
 24 51  1  0
 27 52  1  0
 28 53  1  0
 31 54  1  0
M  CHG  1  13  -1
M  END
>  <meeko>  (489) 
{"free_energy": -6.56, "intermolecular_energy": -8.95, "internal_energy": -2.02, "cluster_size": 283, "cluster_id": 7, "rank_in_cluster": 64}

$$$$

     RDKit          3D

 54 57  0  0  0  0  0  0  0  0999 V2000
    6.6250   34.7360    8.6070 C   0  0  0  0  0  0  0  0  0  0  0  0
    8.0100   34.4700    9.2030 C   0  0  0  0  0  0  0  0  0  0  0  0
    8.6030   35.7040    9.5740 O   0  0  0  0  0  0  0  0  0  0  0  0
    8.4730   36.7840    8.7760 C   0  0  0  0  0  0  0  0  0  0  0  0
    8.4140   36.7160    7.5470 O   0  0  0  0  0  0  0  0  0  0  0  0
    8.4120   37.9560    9.5400 N   0  0  0  0  0  0  0  0  0  0  0  0
    8.1300   37.9350   10.9800 C   0  0  0  0  0  0  0  0  0  0  0  0
    8.6000   39.2780    8.9270 C   0  0  0  0  0  0  0  0  0  0  0  0
    9.5080   40.1650    9.7450 C   0  0  0  0  0  0  0  0  0  0  0  0
   10.8870   40.1280    9.8540 C   0  0  0  0  0  0  0  0  0  0  0  0
   11.8740   39.2330    9.1740 C   0  0  0  0  0  0  0  0  0  0  0  0
   12.6690   39.7330    8.3480 O   0  0  0  0  0  0  0  0  0  0  0  0
   11.8910   38.0060    9.4130 O   0  0  0  0  0  1  0  0  0  0  0  0
   11.2960   41.1090   10.7840 N   0  0  0  0  0  0  0  0  0  0  0  0
   12.6560   41.4450   11.2140 C   0  0  0  0  0  0  0  0  0  0  0  0
   13.0000   42.9390   11.1550 C   0  0  0  0  0  0  0  0  0  0  0  0
   13.2860   43.6650   12.3380 C   0  0  0  0  0  0  0  0  0  0  0  0
   13.6020   45.0340   12.2890 C   0  0  0  0  0  0  0  0  0  0  0  0
   13.6360   45.7030   11.0540 C   0  0  0  0  0  0  0  0  0  0  0  0
   13.3540   45.0040    9.8660 C   0  0  0  0  0  0  0  0  0  0  0  0
   13.3930   45.6920    8.6350 C   0  0  0  0  0  0  0  0  0  0  0  0
   13.1150   45.0140    7.4350 C   0  0  0  0  0  0  0  0  0  0  0  0
   12.7980   43.6440    7.4630 C   0  0  0  0  0  0  0  0  0  0  0  0
   12.7570   42.9510    8.6880 C   0  0  0  0  0  0  0  0  0  0  0  0
   13.0350   43.6190    9.9070 C   0  0  0  0  0  0  0  0  0  0  0  0
   10.1770   41.7720   11.2700 C   0  0  0  0  0  0  0  0  0  0  0  0
   10.0370   42.8100   12.2150 C   0  0  0  0  0  0  0  0  0  0  0  0
    8.7610   43.3110   12.5210 C   0  0  0  0  0  0  0  0  0  0  0  0
    7.6300   42.7750   11.8810 C   0  0  0  0  0  0  0  0  0  0  0  0
    6.3970   43.2570   12.1690 F   0  0  0  0  0  0  0  0  0  0  0  0
    7.7770   41.7360   10.9410 C   0  0  0  0  0  0  0  0  0  0  0  0
    9.0500   41.2060   10.6170 C   0  0  0  0  0  0  0  0  0  0  0  0
    5.8969   34.8758    9.4196 H   0  0  0  0  0  0  0  0  0  0  0  0
    6.6609   35.6437    7.9866 H   0  0  0  0  0  0  0  0  0  0  0  0
    6.3221   33.8796    7.9866 H   0  0  0  0  0  0  0  0  0  0  0  0
    7.9114   33.8277   10.0905 H   0  0  0  0  0  0  0  0  0  0  0  0
    8.6424   33.9654    8.4577 H   0  0  0  0  0  0  0  0  0  0  0  0
    9.0744   38.0053   11.5396 H   0  0  0  0  0  0  0  0  0  0  0  0
    7.4854   38.7876   11.2399 H   0  0  0  0  0  0  0  0  0  0  0  0
    7.6188   36.9963   11.2399 H   0  0  0  0  0  0  0  0  0  0  0  0
    9.0412   39.1453    7.9281 H   0  0  0  0  0  0  0  0  0  0  0  0
    7.6156   39.7655    8.8698 H   0  0  0  0  0  0  0  0  0  0  0  0
   12.7795   41.1064   12.2533 H   0  0  0  0  0  0  0  0  0  0  0  0
   13.3358   40.9432   10.5097 H   0  0  0  0  0  0  0  0  0  0  0  0
   13.2603   43.1495   13.3094 H   0  0  0  0  0  0  0  0  0  0  0  0
   13.8226   45.5813   13.2174 H   0  0  0  0  0  0  0  0  0  0  0  0
   13.8833   46.7742   11.0159 H   0  0  0  0  0  0  0  0  0  0  0  0
   13.6419   46.7633    8.6139 H   0  0  0  0  0  0  0  0  0  0  0  0
   13.1454   45.5536    6.4769 H   0  0  0  0  0  0  0  0  0  0  0  0
   12.5814   43.1122    6.5248 H   0  0  0  0  0  0  0  0  0  0  0  0
   12.5066   41.8799    8.6992 H   0  0  0  0  0  0  0  0  0  0  0  0
   10.9259   43.2264   12.7115 H   0  0  0  0  0  0  0  0  0  0  0  0
    8.6472   44.1193   13.2583 H   0  0  0  0  0  0  0  0  0  0  0  0
    6.8830   41.3271   10.4475 H   0  0  0  0  0  0  0  0  0  0  0  0
  1  2  1  0
  2  3  1  0
  3  4  1  0
  4  5  2  0
  4  6  1  0
  6  7  1  0
  6  8  1  0
  8  9  1  0
  9 10  2  0
 10 11  1  0
 11 12  2  0
 11 13  1  0
 10 14  1  0
 14 15  1  0
 15 16  1  0
 16 17  2  0
 17 18  1  0
 18 19  2  0
 19 20  1  0
 20 21  2  0
 21 22  1  0
 22 23  2  0
 23 24  1  0
 24 25  2  0
 14 26  1  0
 26 27  2  0
 27 28  1  0
 28 29  2  0
 29 30  1  0
 29 31  1  0
 31 32  2  0
 32  9  1  0
 25 16  1  0
 32 26  1  0
 25 20  1  0
  1 33  1  0
  1 34  1  0
  1 35  1  0
  2 36  1  0
  2 37  1  0
  7 38  1  0
  7 39  1  0
  7 40  1  0
  8 41  1  0
  8 42  1  0
 15 43  1  0
 15 44  1  0
 17 45  1  0
 18 46  1  0
 19 47  1  0
 21 48  1  0
 22 49  1  0
 23 50  1  0
 24 51  1  0
 27 52  1  0
 28 53  1  0
 31 54  1  0
M  CHG  1  13  -1
M  END
>  <meeko>  (490) 
{"free_energy": -4.47, "intermolecular_energy": -6.85, "internal_energy": -1.92, "cluster_size": 87, "cluster_id": 14, "rank_in_cluster": 76}

$$$$

     RDKit          3D

 54 57  0  0  0  0  0  0  0  0999 V2000
   11.0130   33.1170   16.2380 C   0  0  0  0  0  0  0  0  0  0  0  0
   10.8200   34.6090   16.5180 C   0  0  0  0  0  0  0  0  0  0  0  0
    9.8990   34.7680   17.5850 O   0  0  0  0  0  0  0  0  0  0  0  0
    8.6010   35.0350   17.3250 C   0  0  0  0  0  0  0  0  0  0  0  0
    7.6730   34.3150   17.6970 O   0  0  0  0  0  0  0  0  0  0  0  0
    8.4810   36.2250   16.5960 N   0  0  0  0  0  0  0  0  0  0  0  0
    7.2730   36.5520   15.8290 C   0  0  0  0  0  0  0  0  0  0  0  0
    9.5800   37.1980   16.5380 C   0  0  0  0  0  0  0  0  0  0  0  0
   10.0760   37.4180   15.1290 C   0  0  0  0  0  0  0  0  0  0  0  0
    9.8070   36.6800   13.9900 C   0  0  0  0  0  0  0  0  0  0  0  0
    8.9290   35.4820   13.8150 C   0  0  0  0  0  0  0  0  0  0  0  0
    8.0510   35.5050   12.9250 O   0  0  0  0  0  0  0  0  0  0  0  0
    9.0570   34.4840   14.5580 O   0  0  0  0  0  1  0  0  0  0  0  0
   10.5420   37.2210   12.9130 N   0  0  0  0  0  0  0  0  0  0  0  0
   10.5690   36.7800   11.5160 C   0  0  0  0  0  0  0  0  0  0  0  0
    9.6610   37.5770   10.5700 C   0  0  0  0  0  0  0  0  0  0  0  0
    9.6530   38.9940   10.5950 C   0  0  0  0  0  0  0  0  0  0  0  0
    8.8230   39.7290    9.7300 C   0  0  0  0  0  0  0  0  0  0  0  0
    7.9830   39.0590    8.8250 C   0  0  0  0  0  0  0  0  0  0  0  0
    7.9720   37.6520    8.7830 C   0  0  0  0  0  0  0  0  0  0  0  0
    7.1220   36.9960    7.8680 C   0  0  0  0  0  0  0  0  0  0  0  0
    7.0940   35.5910    7.8080 C   0  0  0  0  0  0  0  0  0  0  0  0
    7.9180   34.8390    8.6640 C   0  0  0  0  0  0  0  0  0  0  0  0
    8.7680   35.4870    9.5800 C   0  0  0  0  0  0  0  0  0  0  0  0
    8.8090   36.9020    9.6530 C   0  0  0  0  0  0  0  0  0  0  0  0
   11.2820   38.3070   13.3640 C   0  0  0  0  0  0  0  0  0  0  0  0
   12.1770   39.1730   12.7030 C   0  0  0  0  0  0  0  0  0  0  0  0
   12.7940   40.2170   13.4130 C   0  0  0  0  0  0  0  0  0  0  0  0
   12.5130   40.3920   14.7790 C   0  0  0  0  0  0  0  0  0  0  0  0
   13.1020   41.3990   15.4670 F   0  0  0  0  0  0  0  0  0  0  0  0
   11.6210   39.5210   15.4320 C   0  0  0  0  0  0  0  0  0  0  0  0
   10.9890   38.4560   14.7460 C   0  0  0  0  0  0  0  0  0  0  0  0
   11.0836   32.5713   17.1905 H   0  0  0  0  0  0  0  0  0  0  0  0
   10.1563   32.7384   15.6611 H   0  0  0  0  0  0  0  0  0  0  0  0
   11.9378   32.9688   15.6611 H   0  0  0  0  0  0  0  0  0  0  0  0
   11.7848   35.0592   16.7946 H   0  0  0  0  0  0  0  0  0  0  0  0
   10.4316   35.1068   15.6173 H   0  0  0  0  0  0  0  0  0  0  0  0
    6.4481   36.7753   16.5216 H   0  0  0  0  0  0  0  0  0  0  0  0
    7.4675   37.4298   15.1953 H   0  0  0  0  0  0  0  0  0  0  0  0
    6.9981   35.6959   15.1953 H   0  0  0  0  0  0  0  0  0  0  0  0
    9.2248   38.1575   16.9420 H   0  0  0  0  0  0  0  0  0  0  0  0
   10.4158   36.7977   17.1306 H   0  0  0  0  0  0  0  0  0  0  0  0
   11.6029   36.8658   11.1504 H   0  0  0  0  0  0  0  0  0  0  0  0
   10.1900   35.7474   11.5108 H   0  0  0  0  0  0  0  0  0  0  0  0
   10.3060   39.5269   11.3018 H   0  0  0  0  0  0  0  0  0  0  0  0
    8.8315   40.8285    9.7620 H   0  0  0  0  0  0  0  0  0  0  0  0
    7.3335   39.6342    8.1488 H   0  0  0  0  0  0  0  0  0  0  0  0
    6.4784   37.5857    7.1987 H   0  0  0  0  0  0  0  0  0  0  0  0
    6.4298   35.0822    7.0939 H   0  0  0  0  0  0  0  0  0  0  0  0
    7.8983   33.7402    8.6177 H   0  0  0  0  0  0  0  0  0  0  0  0
    9.4072   34.8890   10.2462 H   0  0  0  0  0  0  0  0  0  0  0  0
   12.3919   39.0317   11.6335 H   0  0  0  0  0  0  0  0  0  0  0  0
   13.4939   40.8944   12.9019 H   0  0  0  0  0  0  0  0  0  0  0  0
   11.4098   39.6713   16.5010 H   0  0  0  0  0  0  0  0  0  0  0  0
  1  2  1  0
  2  3  1  0
  3  4  1  0
  4  5  2  0
  4  6  1  0
  6  7  1  0
  6  8  1  0
  8  9  1  0
  9 10  2  0
 10 11  1  0
 11 12  2  0
 11 13  1  0
 10 14  1  0
 14 15  1  0
 15 16  1  0
 16 17  2  0
 17 18  1  0
 18 19  2  0
 19 20  1  0
 20 21  2  0
 21 22  1  0
 22 23  2  0
 23 24  1  0
 24 25  2  0
 14 26  1  0
 26 27  2  0
 27 28  1  0
 28 29  2  0
 29 30  1  0
 29 31  1  0
 31 32  2  0
 32  9  1  0
 25 16  1  0
 32 26  1  0
 25 20  1  0
  1 33  1  0
  1 34  1  0
  1 35  1  0
  2 36  1  0
  2 37  1  0
  7 38  1  0
  7 39  1  0
  7 40  1  0
  8 41  1  0
  8 42  1  0
 15 43  1  0
 15 44  1  0
 17 45  1  0
 18 46  1  0
 19 47  1  0
 21 48  1  0
 22 49  1  0
 23 50  1  0
 24 51  1  0
 27 52  1  0
 28 53  1  0
 31 54  1  0
M  CHG  1  13  -1
M  END
>  <meeko>  (491) 
{"free_energy": -7.75, "intermolecular_energy": -10.14, "internal_energy": -0.96, "cluster_size": 263, "cluster_id": 1, "rank_in_cluster": 28}

$$$$

     RDKit          3D

 54 57  0  0  0  0  0  0  0  0999 V2000
    6.0230   35.7720   17.0560 C   0  0  0  0  0  0  0  0  0  0  0  0
    7.3350   34.9890   16.9690 C   0  0  0  0  0  0  0  0  0  0  0  0
    8.2390   35.6850   16.1260 O   0  0  0  0  0  0  0  0  0  0  0  0
    8.5950   35.1590   14.9340 C   0  0  0  0  0  0  0  0  0  0  0  0
    8.4880   33.9620   14.6630 O   0  0  0  0  0  0  0  0  0  0  0  0
    9.0810   36.1580   14.0820 N   0  0  0  0  0  0  0  0  0  0  0  0
    8.9180   37.5860   14.3790 C   0  0  0  0  0  0  0  0  0  0  0  0
    9.7590   35.8220   12.8220 C   0  0  0  0  0  0  0  0  0  0  0  0
    9.6700   36.9380   11.8080 C   0  0  0  0  0  0  0  0  0  0  0  0
   10.2560   38.1910   11.8440 C   0  0  0  0  0  0  0  0  0  0  0  0
   11.1690   38.7870   12.8690 C   0  0  0  0  0  0  0  0  0  0  0  0
   10.8070   39.8240   13.4650 O   0  0  0  0  0  0  0  0  0  0  0  0
   12.2810   38.2690   13.1090 O   0  0  0  0  0  1  0  0  0  0  0  0
    9.8400   38.9200   10.7100 N   0  0  0  0  0  0  0  0  0  0  0  0
   10.2090   40.2830   10.3180 C   0  0  0  0  0  0  0  0  0  0  0  0
    9.4950   41.3940   11.0990 C   0  0  0  0  0  0  0  0  0  0  0  0
    8.0800   41.4840   11.1040 C   0  0  0  0  0  0  0  0  0  0  0  0
    7.4220   42.5000   11.8180 C   0  0  0  0  0  0  0  0  0  0  0  0
    8.1660   43.4470   12.5390 C   0  0  0  0  0  0  0  0  0  0  0  0
    9.5720   43.3810   12.5480 C   0  0  0  0  0  0  0  0  0  0  0  0
   10.3040   44.3410   13.2780 C   0  0  0  0  0  0  0  0  0  0  0  0
   11.7090   44.2930   13.3010 C   0  0  0  0  0  0  0  0  0  0  0  0
   12.3860   43.2840   12.5940 C   0  0  0  0  0  0  0  0  0  0  0  0
   11.6620   42.3230   11.8630 C   0  0  0  0  0  0  0  0  0  0  0  0
   10.2460   42.3550   11.8290 C   0  0  0  0  0  0  0  0  0  0  0  0
    8.9860   38.1330    9.9480 C   0  0  0  0  0  0  0  0  0  0  0  0
    8.2940   38.3890    8.7460 C   0  0  0  0  0  0  0  0  0  0  0  0
    7.4870   37.3910    8.1760 C   0  0  0  0  0  0  0  0  0  0  0  0
    7.3750   36.1400    8.8080 C   0  0  0  0  0  0  0  0  0  0  0  0
    6.6010   35.1720    8.2610 F   0  0  0  0  0  0  0  0  0  0  0  0
    8.0660   35.8930   10.0100 C   0  0  0  0  0  0  0  0  0  0  0  0
    8.8820   36.8820   10.6120 C   0  0  0  0  0  0  0  0  0  0  0  0
    5.7593   35.9294   18.1123 H   0  0  0  0  0  0  0  0  0  0  0  0
    6.1436   36.7460   16.5591 H   0  0  0  0  0  0  0  0  0  0  0  0
    5.2231   35.2035   16.5591 H   0  0  0  0  0  0  0  0  0  0  0  0
    7.7714   34.8896   17.9738 H   0  0  0  0  0  0  0  0  0  0  0  0
    7.1411   33.9880   16.5562 H   0  0  0  0  0  0  0  0  0  0  0  0
    8.9011   37.7342   15.4688 H   0  0  0  0  0  0  0  0  0  0  0  0
    9.7577   38.1489   13.9454 H   0  0  0  0  0  0  0  0  0  0  0  0
    7.9730   37.9452   13.9454 H   0  0  0  0  0  0  0  0  0  0  0  0
   10.8194   35.6201   13.0338 H   0  0  0  0  0  0  0  0  0  0  0  0
    9.2594   34.9395   12.3959 H   0  0  0  0  0  0  0  0  0  0  0  0
   11.2922   40.4008   10.4689 H   0  0  0  0  0  0  0  0  0  0  0  0
    9.9015   40.3966    9.2680 H   0  0  0  0  0  0  0  0  0  0  0  0
    7.4883   40.7475   10.5405 H   0  0  0  0  0  0  0  0  0  0  0  0
    6.3233   42.5531   11.8118 H   0  0  0  0  0  0  0  0  0  0  0  0
    7.6497   44.2416   13.0976 H   0  0  0  0  0  0  0  0  0  0  0  0
    9.7736   45.1300   13.8313 H   0  0  0  0  0  0  0  0  0  0  0  0
   12.2771   45.0431   13.8708 H   0  0  0  0  0  0  0  0  0  0  0  0
   13.4852   43.2452   12.6120 H   0  0  0  0  0  0  0  0  0  0  0  0
   12.2017   41.5386   11.3121 H   0  0  0  0  0  0  0  0  0  0  0  0
    8.3863   39.3693    8.2556 H   0  0  0  0  0  0  0  0  0  0  0  0
    6.9449   37.5871    7.2392 H   0  0  0  0  0  0  0  0  0  0  0  0
    7.9698   34.9092   10.4926 H   0  0  0  0  0  0  0  0  0  0  0  0
  1  2  1  0
  2  3  1  0
  3  4  1  0
  4  5  2  0
  4  6  1  0
  6  7  1  0
  6  8  1  0
  8  9  1  0
  9 10  2  0
 10 11  1  0
 11 12  2  0
 11 13  1  0
 10 14  1  0
 14 15  1  0
 15 16  1  0
 16 17  2  0
 17 18  1  0
 18 19  2  0
 19 20  1  0
 20 21  2  0
 21 22  1  0
 22 23  2  0
 23 24  1  0
 24 25  2  0
 14 26  1  0
 26 27  2  0
 27 28  1  0
 28 29  2  0
 29 30  1  0
 29 31  1  0
 31 32  2  0
 32  9  1  0
 25 16  1  0
 32 26  1  0
 25 20  1  0
  1 33  1  0
  1 34  1  0
  1 35  1  0
  2 36  1  0
  2 37  1  0
  7 38  1  0
  7 39  1  0
  7 40  1  0
  8 41  1  0
  8 42  1  0
 15 43  1  0
 15 44  1  0
 17 45  1  0
 18 46  1  0
 19 47  1  0
 21 48  1  0
 22 49  1  0
 23 50  1  0
 24 51  1  0
 27 52  1  0
 28 53  1  0
 31 54  1  0
M  CHG  1  13  -1
M  END
>  <meeko>  (492) 
{"free_energy": -7.03, "intermolecular_energy": -9.41, "internal_energy": -1.51, "cluster_size": 318, "cluster_id": 5, "rank_in_cluster": 19}

$$$$

     RDKit          3D

 54 57  0  0  0  0  0  0  0  0999 V2000
   14.1700   41.6150    7.1840 C   0  0  0  0  0  0  0  0  0  0  0  0
   13.9050   42.6470    8.2830 C   0  0  0  0  0  0  0  0  0  0  0  0
   13.8610   41.9910    9.5390 O   0  0  0  0  0  0  0  0  0  0  0  0
   12.7290   42.0130   10.2740 C   0  0  0  0  0  0  0  0  0  0  0  0
   12.6270   42.6140   11.3450 O   0  0  0  0  0  0  0  0  0  0  0  0
   11.7190   41.2740    9.6440 N   0  0  0  0  0  0  0  0  0  0  0  0
   10.3540   41.7880    9.4930 C   0  0  0  0  0  0  0  0  0  0  0  0
   11.9750   39.9230    9.1250 C   0  0  0  0  0  0  0  0  0  0  0  0
   11.1660   38.8710    9.8460 C   0  0  0  0  0  0  0  0  0  0  0  0
   11.5190   38.1110   10.9480 C   0  0  0  0  0  0  0  0  0  0  0  0
   12.7760   38.1330   11.7590 C   0  0  0  0  0  0  0  0  0  0  0  0
   13.8730   38.0280   11.1690 O   0  0  0  0  0  0  0  0  0  0  0  0
   12.7280   38.2350   13.0040 O   0  0  0  0  0  1  0  0  0  0  0  0
   10.4700   37.2110   11.2340 N   0  0  0  0  0  0  0  0  0  0  0  0
   10.3890   36.2200   12.3100 C   0  0  0  0  0  0  0  0  0  0  0  0
    9.9800   36.7850   13.6770 C   0  0  0  0  0  0  0  0  0  0  0  0
   10.1400   38.1630   13.9700 C   0  0  0  0  0  0  0  0  0  0  0  0
    9.7670   38.6850   15.2210 C   0  0  0  0  0  0  0  0  0  0  0  0
    9.2290   37.8380   16.2030 C   0  0  0  0  0  0  0  0  0  0  0  0
    9.0630   36.4650   15.9370 C   0  0  0  0  0  0  0  0  0  0  0  0
    8.5220   35.6300   16.9360 C   0  0  0  0  0  0  0  0  0  0  0  0
    8.3470   34.2560   16.6920 C   0  0  0  0  0  0  0  0  0  0  0  0
    8.7130   33.7140   15.4470 C   0  0  0  0  0  0  0  0  0  0  0  0
    9.2540   34.5430   14.4460 C   0  0  0  0  0  0  0  0  0  0  0  0
    9.4370   35.9300   14.6740 C   0  0  0  0  0  0  0  0  0  0  0  0
    9.4460   37.3950   10.3140 C   0  0  0  0  0  0  0  0  0  0  0  0
    8.2020   36.7510   10.1520 C   0  0  0  0  0  0  0  0  0  0  0  0
    7.3350   37.1510    9.1210 C   0  0  0  0  0  0  0  0  0  0  0  0
    7.7140   38.1930    8.2570 C   0  0  0  0  0  0  0  0  0  0  0  0
    6.8810   38.5850    7.2640 F   0  0  0  0  0  0  0  0  0  0  0  0
    8.9600   38.8280    8.4230 C   0  0  0  0  0  0  0  0  0  0  0  0
    9.8570   38.4430    9.4480 C   0  0  0  0  0  0  0  0  0  0  0  0
   14.4187   40.6466    7.6426 H   0  0  0  0  0  0  0  0  0  0  0  0
   13.2710   41.5050    6.5598 H   0  0  0  0  0  0  0  0  0  0  0  0
   15.0108   41.9518    6.5598 H   0  0  0  0  0  0  0  0  0  0  0  0
   14.7113   43.3952    8.2870 H   0  0  0  0  0  0  0  0  0  0  0  0
   12.9442   43.1484    8.0946 H   0  0  0  0  0  0  0  0  0  0  0  0
    9.9127   41.9542   10.4868 H   0  0  0  0  0  0  0  0  0  0  0  0
   10.3792   42.7382    8.9395 H   0  0  0  0  0  0  0  0  0  0  0  0
    9.7461   41.0572    8.9395 H   0  0  0  0  0  0  0  0  0  0  0  0
   11.7149   39.8990    8.0565 H   0  0  0  0  0  0  0  0  0  0  0  0
   13.0398   39.6970    9.2835 H   0  0  0  0  0  0  0  0  0  0  0  0
    9.6497   35.4591   12.0193 H   0  0  0  0  0  0  0  0  0  0  0  0
   11.4040   35.8145   12.4341 H   0  0  0  0  0  0  0  0  0  0  0  0
   10.5623   38.8336   13.2072 H   0  0  0  0  0  0  0  0  0  0  0  0
    9.8967   39.7571   15.4304 H   0  0  0  0  0  0  0  0  0  0  0  0
    8.9368   38.2473   17.1813 H   0  0  0  0  0  0  0  0  0  0  0  0
    8.2358   36.0546   17.9095 H   0  0  0  0  0  0  0  0  0  0  0  0
    7.9248   33.6068   17.4732 H   0  0  0  0  0  0  0  0  0  0  0  0
    8.5762   32.6396   15.2548 H   0  0  0  0  0  0  0  0  0  0  0  0
    9.5380   34.1094   13.4758 H   0  0  0  0  0  0  0  0  0  0  0  0
    7.9107   35.9367   10.8317 H   0  0  0  0  0  0  0  0  0  0  0  0
    6.3640   36.6509    8.9906 H   0  0  0  0  0  0  0  0  0  0  0  0
    9.2428   39.6425    7.7399 H   0  0  0  0  0  0  0  0  0  0  0  0
  1  2  1  0
  2  3  1  0
  3  4  1  0
  4  5  2  0
  4  6  1  0
  6  7  1  0
  6  8  1  0
  8  9  1  0
  9 10  2  0
 10 11  1  0
 11 12  2  0
 11 13  1  0
 10 14  1  0
 14 15  1  0
 15 16  1  0
 16 17  2  0
 17 18  1  0
 18 19  2  0
 19 20  1  0
 20 21  2  0
 21 22  1  0
 22 23  2  0
 23 24  1  0
 24 25  2  0
 14 26  1  0
 26 27  2  0
 27 28  1  0
 28 29  2  0
 29 30  1  0
 29 31  1  0
 31 32  2  0
 32  9  1  0
 25 16  1  0
 32 26  1  0
 25 20  1  0
  1 33  1  0
  1 34  1  0
  1 35  1  0
  2 36  1  0
  2 37  1  0
  7 38  1  0
  7 39  1  0
  7 40  1  0
  8 41  1  0
  8 42  1  0
 15 43  1  0
 15 44  1  0
 17 45  1  0
 18 46  1  0
 19 47  1  0
 21 48  1  0
 22 49  1  0
 23 50  1  0
 24 51  1  0
 27 52  1  0
 28 53  1  0
 31 54  1  0
M  CHG  1  13  -1
M  END
>  <meeko>  (493) 
{"free_energy": -5.6, "intermolecular_energy": -7.98, "internal_energy": -1.58, "cluster_size": 253, "cluster_id": 8, "rank_in_cluster": 204}

$$$$

     RDKit          3D

 54 57  0  0  0  0  0  0  0  0999 V2000
   13.5400   46.2330    6.7970 C   0  0  0  0  0  0  0  0  0  0  0  0
   13.9910   45.8980    8.2210 C   0  0  0  0  0  0  0  0  0  0  0  0
   12.9950   45.1090    8.8520 O   0  0  0  0  0  0  0  0  0  0  0  0
   12.7490   43.8550    8.4170 C   0  0  0  0  0  0  0  0  0  0  0  0
   11.8570   43.5800    7.6130 O   0  0  0  0  0  0  0  0  0  0  0  0
   13.6420   42.9480    9.0010 N   0  0  0  0  0  0  0  0  0  0  0  0
   14.8120   42.4330    8.2820 C   0  0  0  0  0  0  0  0  0  0  0  0
   13.4320   42.4420   10.3640 C   0  0  0  0  0  0  0  0  0  0  0  0
   12.3360   41.4050   10.4270 C   0  0  0  0  0  0  0  0  0  0  0  0
   12.3410   40.1080    9.9450 C   0  0  0  0  0  0  0  0  0  0  0  0
   13.4340   39.3490    9.2600 C   0  0  0  0  0  0  0  0  0  0  0  0
   14.1650   38.6000    9.9430 O   0  0  0  0  0  0  0  0  0  0  0  0
   13.6240   39.4780    8.0310 O   0  0  0  0  0  1  0  0  0  0  0  0
   11.0730   39.5320   10.1740 N   0  0  0  0  0  0  0  0  0  0  0  0
   10.6140   38.1800    9.8450 C   0  0  0  0  0  0  0  0  0  0  0  0
    9.3110   38.1200    9.0370 C   0  0  0  0  0  0  0  0  0  0  0  0
    8.8140   39.2700    8.3730 C   0  0  0  0  0  0  0  0  0  0  0  0
    7.6210   39.2200    7.6310 C   0  0  0  0  0  0  0  0  0  0  0  0
    6.9010   38.0180    7.5420 C   0  0  0  0  0  0  0  0  0  0  0  0
    7.3720   36.8630    8.1930 C   0  0  0  0  0  0  0  0  0  0  0  0
    6.6350   35.6640    8.0930 C   0  0  0  0  0  0  0  0  0  0  0  0
    7.0860   34.4980    8.7360 C   0  0  0  0  0  0  0  0  0  0  0  0
    8.2780   34.5280    9.4810 C   0  0  0  0  0  0  0  0  0  0  0  0
    9.0180   35.7210    9.5860 C   0  0  0  0  0  0  0  0  0  0  0  0
    8.5780   36.9050    8.9450 C   0  0  0  0  0  0  0  0  0  0  0  0
   10.2550   40.4630   10.8020 C   0  0  0  0  0  0  0  0  0  0  0  0
    8.9130   40.3970   11.2290 C   0  0  0  0  0  0  0  0  0  0  0  0
    8.3230   41.5060   11.8580 C   0  0  0  0  0  0  0  0  0  0  0  0
    9.0760   42.6750   12.0600 C   0  0  0  0  0  0  0  0  0  0  0  0
    8.5150   43.7460   12.6700 F   0  0  0  0  0  0  0  0  0  0  0  0
   10.4150   42.7340   11.6280 C   0  0  0  0  0  0  0  0  0  0  0  0
   11.0350   41.6360   10.9840 C   0  0  0  0  0  0  0  0  0  0  0  0
   12.6575   46.8885    6.8365 H   0  0  0  0  0  0  0  0  0  0  0  0
   14.3548   46.7466    6.2656 H   0  0  0  0  0  0  0  0  0  0  0  0
   13.2836   45.3046    6.2656 H   0  0  0  0  0  0  0  0  0  0  0  0
   14.9366   45.3372    8.1851 H   0  0  0  0  0  0  0  0  0  0  0  0
   14.1413   46.8276    8.7895 H   0  0  0  0  0  0  0  0  0  0  0  0
   15.5698   42.0994    9.0062 H   0  0  0  0  0  0  0  0  0  0  0  0
   14.5100   41.5846    7.6503 H   0  0  0  0  0  0  0  0  0  0  0  0
   15.2337   43.2287    7.6503 H   0  0  0  0  0  0  0  0  0  0  0  0
   14.3685   41.9893   10.7216 H   0  0  0  0  0  0  0  0  0  0  0  0
   13.1297   43.2905   10.9955 H   0  0  0  0  0  0  0  0  0  0  0  0
   11.4024   37.6842    9.2597 H   0  0  0  0  0  0  0  0  0  0  0  0
   10.4062   37.6824   10.8038 H   0  0  0  0  0  0  0  0  0  0  0  0
    9.3708   40.2164    8.4395 H   0  0  0  0  0  0  0  0  0  0  0  0
    7.2520   40.1218    7.1206 H   0  0  0  0  0  0  0  0  0  0  0  0
    5.9670   37.9792    6.9623 H   0  0  0  0  0  0  0  0  0  0  0  0
    5.7030   35.6415    7.5091 H   0  0  0  0  0  0  0  0  0  0  0  0
    6.5082   33.5653    8.6565 H   0  0  0  0  0  0  0  0  0  0  0  0
    8.6335   33.6163    9.9835 H   0  0  0  0  0  0  0  0  0  0  0  0
    9.9485   35.7338   10.1725 H   0  0  0  0  0  0  0  0  0  0  0  0
    8.3288   39.4786   11.0699 H   0  0  0  0  0  0  0  0  0  0  0  0
    7.2757   41.4594   12.1911 H   0  0  0  0  0  0  0  0  0  0  0  0
   10.9930   43.6549   11.7948 H   0  0  0  0  0  0  0  0  0  0  0  0
  1  2  1  0
  2  3  1  0
  3  4  1  0
  4  5  2  0
  4  6  1  0
  6  7  1  0
  6  8  1  0
  8  9  1  0
  9 10  2  0
 10 11  1  0
 11 12  2  0
 11 13  1  0
 10 14  1  0
 14 15  1  0
 15 16  1  0
 16 17  2  0
 17 18  1  0
 18 19  2  0
 19 20  1  0
 20 21  2  0
 21 22  1  0
 22 23  2  0
 23 24  1  0
 24 25  2  0
 14 26  1  0
 26 27  2  0
 27 28  1  0
 28 29  2  0
 29 30  1  0
 29 31  1  0
 31 32  2  0
 32  9  1  0
 25 16  1  0
 32 26  1  0
 25 20  1  0
  1 33  1  0
  1 34  1  0
  1 35  1  0
  2 36  1  0
  2 37  1  0
  7 38  1  0
  7 39  1  0
  7 40  1  0
  8 41  1  0
  8 42  1  0
 15 43  1  0
 15 44  1  0
 17 45  1  0
 18 46  1  0
 19 47  1  0
 21 48  1  0
 22 49  1  0
 23 50  1  0
 24 51  1  0
 27 52  1  0
 28 53  1  0
 31 54  1  0
M  CHG  1  13  -1
M  END
>  <meeko>  (494) 
{"free_energy": -5.56, "intermolecular_energy": -7.95, "internal_energy": -1.64, "cluster_size": 74, "cluster_id": 18, "rank_in_cluster": 33}

$$$$

     RDKit          3D

 54 57  0  0  0  0  0  0  0  0999 V2000
    7.8490   32.8350   14.9030 C   0  0  0  0  0  0  0  0  0  0  0  0
    8.9800   33.3410   15.8010 C   0  0  0  0  0  0  0  0  0  0  0  0
    9.9380   34.0230   15.0070 O   0  0  0  0  0  0  0  0  0  0  0  0
   10.2640   35.3020   15.2890 C   0  0  0  0  0  0  0  0  0  0  0  0
   11.1520   35.6160   16.0820 O   0  0  0  0  0  0  0  0  0  0  0  0
    9.4620   36.1860   14.5560 N   0  0  0  0  0  0  0  0  0  0  0  0
    9.8240   36.6310   13.2050 C   0  0  0  0  0  0  0  0  0  0  0  0
    8.2230   36.7380   15.1200 C   0  0  0  0  0  0  0  0  0  0  0  0
    8.3950   37.1810   16.5540 C   0  0  0  0  0  0  0  0  0  0  0  0
    7.9420   36.5710   17.7100 C   0  0  0  0  0  0  0  0  0  0  0  0
    7.1870   35.2900   17.8800 C   0  0  0  0  0  0  0  0  0  0  0  0
    6.6140   34.7940   16.8860 O   0  0  0  0  0  0  0  0  0  0  0  0
    7.1160   34.7360   18.9990 O   0  0  0  0  0  1  0  0  0  0  0  0
    8.2830   37.3790   18.8150 N   0  0  0  0  0  0  0  0  0  0  0  0
    8.0210   37.1370   20.2370 C   0  0  0  0  0  0  0  0  0  0  0  0
    6.5640   36.7940   20.5740 C   0  0  0  0  0  0  0  0  0  0  0  0
    6.2570   35.8070   21.5440 C   0  0  0  0  0  0  0  0  0  0  0  0
    4.9240   35.4890   21.8570 C   0  0  0  0  0  0  0  0  0  0  0  0
    3.8720   36.1510   21.2020 C   0  0  0  0  0  0  0  0  0  0  0  0
    4.1510   37.1330   20.2330 C   0  0  0  0  0  0  0  0  0  0  0  0
    3.0830   37.7870   19.5860 C   0  0  0  0  0  0  0  0  0  0  0  0
    3.3380   38.7720   18.6140 C   0  0  0  0  0  0  0  0  0  0  0  0
    4.6650   39.1050   18.2890 C   0  0  0  0  0  0  0  0  0  0  0  0
    5.7370   38.4550   18.9310 C   0  0  0  0  0  0  0  0  0  0  0  0
    5.4970   37.4610   19.9120 C   0  0  0  0  0  0  0  0  0  0  0  0
    8.9550   38.5090   18.3660 C   0  0  0  0  0  0  0  0  0  0  0  0
    9.4900   39.6190   19.0510 C   0  0  0  0  0  0  0  0  0  0  0  0
   10.1410   40.6370   18.3340 C   0  0  0  0  0  0  0  0  0  0  0  0
   10.2570   40.5410   16.9370 C   0  0  0  0  0  0  0  0  0  0  0  0
   10.8870   41.5170   16.2410 F   0  0  0  0  0  0  0  0  0  0  0  0
    9.7180   39.4310   16.2590 C   0  0  0  0  0  0  0  0  0  0  0  0
    9.0500   38.3920   16.9530 C   0  0  0  0  0  0  0  0  0  0  0  0
    7.0225   32.4652   15.5276 H   0  0  0  0  0  0  0  0  0  0  0  0
    7.4890   33.6579   14.2680 H   0  0  0  0  0  0  0  0  0  0  0  0
    8.2226   32.0182   14.2680 H   0  0  0  0  0  0  0  0  0  0  0  0
    8.5707   34.0291   16.5553 H   0  0  0  0  0  0  0  0  0  0  0  0
    9.4587   32.4895   16.3068 H   0  0  0  0  0  0  0  0  0  0  0  0
   10.5168   37.4827   13.2728 H   0  0  0  0  0  0  0  0  0  0  0  0
   10.3100   35.8051   12.6648 H   0  0  0  0  0  0  0  0  0  0  0  0
    8.9165   36.9387   12.6648 H   0  0  0  0  0  0  0  0  0  0  0  0
    7.9145   37.6043   14.5164 H   0  0  0  0  0  0  0  0  0  0  0  0
    7.4613   35.9446   15.1013 H   0  0  0  0  0  0  0  0  0  0  0  0
    8.6541   36.2989   20.5637 H   0  0  0  0  0  0  0  0  0  0  0  0
    8.2454   38.0796   20.7578 H   0  0  0  0  0  0  0  0  0  0  0  0
    7.0745   35.2818   22.0597 H   0  0  0  0  0  0  0  0  0  0  0  0
    4.7046   34.7221   22.6145 H   0  0  0  0  0  0  0  0  0  0  0  0
    2.8290   35.9015   21.4468 H   0  0  0  0  0  0  0  0  0  0  0  0
    2.0455   37.5262   19.8421 H   0  0  0  0  0  0  0  0  0  0  0  0
    2.5023   39.2797   18.1102 H   0  0  0  0  0  0  0  0  0  0  0  0
    4.8666   39.8759   17.5307 H   0  0  0  0  0  0  0  0  0  0  0  0
    6.7713   38.7218   18.6681 H   0  0  0  0  0  0  0  0  0  0  0  0
    9.3979   39.6880   20.1450 H   0  0  0  0  0  0  0  0  0  0  0  0
   10.5582   41.5058   18.8643 H   0  0  0  0  0  0  0  0  0  0  0  0
    9.8178   39.3690   15.1653 H   0  0  0  0  0  0  0  0  0  0  0  0
  1  2  1  0
  2  3  1  0
  3  4  1  0
  4  5  2  0
  4  6  1  0
  6  7  1  0
  6  8  1  0
  8  9  1  0
  9 10  2  0
 10 11  1  0
 11 12  2  0
 11 13  1  0
 10 14  1  0
 14 15  1  0
 15 16  1  0
 16 17  2  0
 17 18  1  0
 18 19  2  0
 19 20  1  0
 20 21  2  0
 21 22  1  0
 22 23  2  0
 23 24  1  0
 24 25  2  0
 14 26  1  0
 26 27  2  0
 27 28  1  0
 28 29  2  0
 29 30  1  0
 29 31  1  0
 31 32  2  0
 32  9  1  0
 25 16  1  0
 32 26  1  0
 25 20  1  0
  1 33  1  0
  1 34  1  0
  1 35  1  0
  2 36  1  0
  2 37  1  0
  7 38  1  0
  7 39  1  0
  7 40  1  0
  8 41  1  0
  8 42  1  0
 15 43  1  0
 15 44  1  0
 17 45  1  0
 18 46  1  0
 19 47  1  0
 21 48  1  0
 22 49  1  0
 23 50  1  0
 24 51  1  0
 27 52  1  0
 28 53  1  0
 31 54  1  0
M  CHG  1  13  -1
M  END
>  <meeko>  (495) 
{"free_energy": -4.12, "intermolecular_energy": -6.51, "internal_energy": -2.07, "cluster_size": 27, "cluster_id": 24, "rank_in_cluster": 27}

$$$$

     RDKit          3D

 54 57  0  0  0  0  0  0  0  0999 V2000
   14.8750   36.7030   10.2340 C   0  0  0  0  0  0  0  0  0  0  0  0
   13.7540   37.7430   10.1820 C   0  0  0  0  0  0  0  0  0  0  0  0
   12.7200   37.3620   11.0760 O   0  0  0  0  0  0  0  0  0  0  0  0
   11.4510   37.7660   10.8550 C   0  0  0  0  0  0  0  0  0  0  0  0
   10.5350   36.9950   10.5640 O   0  0  0  0  0  0  0  0  0  0  0  0
   11.3440   39.1540   11.0100 N   0  0  0  0  0  0  0  0  0  0  0  0
   10.3530   39.9470   10.2750 C   0  0  0  0  0  0  0  0  0  0  0  0
   12.2470   39.8930   11.9030 C   0  0  0  0  0  0  0  0  0  0  0  0
   12.3860   39.2290   13.2520 C   0  0  0  0  0  0  0  0  0  0  0  0
   11.3920   38.7930   14.1110 C   0  0  0  0  0  0  0  0  0  0  0  0
    9.9060   38.8190   13.9400 C   0  0  0  0  0  0  0  0  0  0  0  0
    9.2970   37.7350   13.8140 O   0  0  0  0  0  0  0  0  0  0  0  0
    9.2880   39.9050   13.9050 O   0  0  0  0  0  1  0  0  0  0  0  0
   11.9930   38.2950   15.2860 N   0  0  0  0  0  0  0  0  0  0  0  0
   11.3430   37.7190   16.4670 C   0  0  0  0  0  0  0  0  0  0  0  0
   10.8260   36.2860   16.2850 C   0  0  0  0  0  0  0  0  0  0  0  0
   11.6960   35.2480   15.8680 C   0  0  0  0  0  0  0  0  0  0  0  0
   11.2270   33.9340   15.7000 C   0  0  0  0  0  0  0  0  0  0  0  0
    9.8770   33.6340   15.9440 C   0  0  0  0  0  0  0  0  0  0  0  0
    8.9930   34.6480   16.3570 C   0  0  0  0  0  0  0  0  0  0  0  0
    7.6400   34.3280   16.5960 C   0  0  0  0  0  0  0  0  0  0  0  0
    6.7380   35.3250   17.0090 C   0  0  0  0  0  0  0  0  0  0  0  0
    7.1890   36.6460   17.1840 C   0  0  0  0  0  0  0  0  0  0  0  0
    8.5380   36.9720   16.9460 C   0  0  0  0  0  0  0  0  0  0  0  0
    9.4600   35.9800   16.5300 C   0  0  0  0  0  0  0  0  0  0  0  0
   13.3730   38.4120   15.1800 C   0  0  0  0  0  0  0  0  0  0  0  0
   14.4150   38.0800   16.0700 C   0  0  0  0  0  0  0  0  0  0  0  0
   15.7510   38.3020   15.6970 C   0  0  0  0  0  0  0  0  0  0  0  0
   16.0410   38.8520   14.4370 C   0  0  0  0  0  0  0  0  0  0  0  0
   17.3270   39.0640   14.0700 F   0  0  0  0  0  0  0  0  0  0  0  0
   14.9940   39.1850   13.5550 C   0  0  0  0  0  0  0  0  0  0  0  0
   13.6380   38.9800   13.9050 C   0  0  0  0  0  0  0  0  0  0  0  0
   15.1178   36.4777   11.2830 H   0  0  0  0  0  0  0  0  0  0  0  0
   14.5457   35.7833    9.7282 H   0  0  0  0  0  0  0  0  0  0  0  0
   15.7674   37.1002    9.7282 H   0  0  0  0  0  0  0  0  0  0  0  0
   14.1506   38.7260   10.4761 H   0  0  0  0  0  0  0  0  0  0  0  0
   13.3537   37.8030    9.1592 H   0  0  0  0  0  0  0  0  0  0  0  0
    9.6995   40.4700   10.9887 H   0  0  0  0  0  0  0  0  0  0  0  0
   10.8693   40.6842    9.6425 H   0  0  0  0  0  0  0  0  0  0  0  0
    9.7470   39.2816    9.6425 H   0  0  0  0  0  0  0  0  0  0  0  0
   13.2399   39.9515   11.4332 H   0  0  0  0  0  0  0  0  0  0  0  0
   11.8193   40.8939   12.0622 H   0  0  0  0  0  0  0  0  0  0  0  0
   12.0713   37.7174   17.2913 H   0  0  0  0  0  0  0  0  0  0  0  0
   10.4595   38.3427   16.6680 H   0  0  0  0  0  0  0  0  0  0  0  0
   12.7546   35.4743   15.6728 H   0  0  0  0  0  0  0  0  0  0  0  0
   11.9172   33.1406   15.3774 H   0  0  0  0  0  0  0  0  0  0  0  0
    9.5102   32.6054   15.8122 H   0  0  0  0  0  0  0  0  0  0  0  0
    7.2890   33.2946   16.4588 H   0  0  0  0  0  0  0  0  0  0  0  0
    5.6835   35.0727   17.1945 H   0  0  0  0  0  0  0  0  0  0  0  0
    6.4853   37.4270   17.5079 H   0  0  0  0  0  0  0  0  0  0  0  0
    8.8798   38.0083   17.0846 H   0  0  0  0  0  0  0  0  0  0  0  0
   14.1822   37.6480   17.0545 H   0  0  0  0  0  0  0  0  0  0  0  0
   16.5671   38.0462   16.3888 H   0  0  0  0  0  0  0  0  0  0  0  0
   15.2360   39.6143   12.5716 H   0  0  0  0  0  0  0  0  0  0  0  0
  1  2  1  0
  2  3  1  0
  3  4  1  0
  4  5  2  0
  4  6  1  0
  6  7  1  0
  6  8  1  0
  8  9  1  0
  9 10  2  0
 10 11  1  0
 11 12  2  0
 11 13  1  0
 10 14  1  0
 14 15  1  0
 15 16  1  0
 16 17  2  0
 17 18  1  0
 18 19  2  0
 19 20  1  0
 20 21  2  0
 21 22  1  0
 22 23  2  0
 23 24  1  0
 24 25  2  0
 14 26  1  0
 26 27  2  0
 27 28  1  0
 28 29  2  0
 29 30  1  0
 29 31  1  0
 31 32  2  0
 32  9  1  0
 25 16  1  0
 32 26  1  0
 25 20  1  0
  1 33  1  0
  1 34  1  0
  1 35  1  0
  2 36  1  0
  2 37  1  0
  7 38  1  0
  7 39  1  0
  7 40  1  0
  8 41  1  0
  8 42  1  0
 15 43  1  0
 15 44  1  0
 17 45  1  0
 18 46  1  0
 19 47  1  0
 21 48  1  0
 22 49  1  0
 23 50  1  0
 24 51  1  0
 27 52  1  0
 28 53  1  0
 31 54  1  0
M  CHG  1  13  -1
M  END
>  <meeko>  (496) 
{"free_energy": -4.78, "intermolecular_energy": -7.17, "internal_energy": -2.14, "cluster_size": 30, "cluster_id": 91, "rank_in_cluster": 16}

$$$$

     RDKit          3D

 54 57  0  0  0  0  0  0  0  0999 V2000
    7.5680   34.6490    9.7120 C   0  0  0  0  0  0  0  0  0  0  0  0
    8.2130   34.7050    8.3250 C   0  0  0  0  0  0  0  0  0  0  0  0
    8.6300   36.0340    8.0560 O   0  0  0  0  0  0  0  0  0  0  0  0
    8.9900   36.8480    9.0710 C   0  0  0  0  0  0  0  0  0  0  0  0
    9.8470   36.5520    9.9060 O   0  0  0  0  0  0  0  0  0  0  0  0
    8.2640   38.0450    9.0230 N   0  0  0  0  0  0  0  0  0  0  0  0
    7.7690   38.6070    7.7620 C   0  0  0  0  0  0  0  0  0  0  0  0
    7.9860   38.8160   10.2420 C   0  0  0  0  0  0  0  0  0  0  0  0
    9.2030   38.9450   11.1280 C   0  0  0  0  0  0  0  0  0  0  0  0
   10.2170   39.8850   11.0760 C   0  0  0  0  0  0  0  0  0  0  0  0
   10.3860   41.0570   10.1610 C   0  0  0  0  0  0  0  0  0  0  0  0
    9.7000   42.0820   10.3650 O   0  0  0  0  0  0  0  0  0  0  0  0
   11.1840   41.0040    9.2000 O   0  0  0  0  0  1  0  0  0  0  0  0
   11.1770   39.5720   12.0630 N   0  0  0  0  0  0  0  0  0  0  0  0
   12.4140   40.2870   12.3880 C   0  0  0  0  0  0  0  0  0  0  0  0
   12.2840   41.8150   12.4330 C   0  0  0  0  0  0  0  0  0  0  0  0
   13.1880   42.6420   11.7210 C   0  0  0  0  0  0  0  0  0  0  0  0
   13.0720   44.0430   11.7590 C   0  0  0  0  0  0  0  0  0  0  0  0
   12.0500   44.6420   12.5130 C   0  0  0  0  0  0  0  0  0  0  0  0
   11.1400   43.8420   13.2300 C   0  0  0  0  0  0  0  0  0  0  0  0
   10.1200   44.4620   13.9810 C   0  0  0  0  0  0  0  0  0  0  0  0
    9.2010   43.6830   14.7060 C   0  0  0  0  0  0  0  0  0  0  0  0
    9.2990   42.2800   14.6790 C   0  0  0  0  0  0  0  0  0  0  0  0
   10.3160   41.6550   13.9310 C   0  0  0  0  0  0  0  0  0  0  0  0
   11.2500   42.4250   13.1950 C   0  0  0  0  0  0  0  0  0  0  0  0
   10.7760   38.4310   12.7450 C   0  0  0  0  0  0  0  0  0  0  0  0
   11.3750   37.7060   13.7960 C   0  0  0  0  0  0  0  0  0  0  0  0
   10.7360   36.5680   14.3160 C   0  0  0  0  0  0  0  0  0  0  0  0
    9.4990   36.1610   13.7850 C   0  0  0  0  0  0  0  0  0  0  0  0
    8.8760   35.0670   14.2850 F   0  0  0  0  0  0  0  0  0  0  0  0
    8.9090   36.8880   12.7340 C   0  0  0  0  0  0  0  0  0  0  0  0
    9.5330   38.0340   12.1850 C   0  0  0  0  0  0  0  0  0  0  0  0
    8.3497   34.7169   10.4829 H   0  0  0  0  0  0  0  0  0  0  0  0
    6.8677   35.4897    9.8249 H   0  0  0  0  0  0  0  0  0  0  0  0
    7.0231   33.7002    9.8249 H   0  0  0  0  0  0  0  0  0  0  0  0
    9.0840   34.0337    8.2973 H   0  0  0  0  0  0  0  0  0  0  0  0
    7.4834   34.3866    7.5658 H   0  0  0  0  0  0  0  0  0  0  0  0
    7.0559   39.4166    7.9763 H   0  0  0  0  0  0  0  0  0  0  0  0
    8.6139   39.0066    7.1820 H   0  0  0  0  0  0  0  0  0  0  0  0
    7.2659   37.8193    7.1820 H   0  0  0  0  0  0  0  0  0  0  0  0
    7.6491   39.8230    9.9547 H   0  0  0  0  0  0  0  0  0  0  0  0
    7.2111   38.2803   10.8100 H   0  0  0  0  0  0  0  0  0  0  0  0
   12.7577   39.9441   13.3751 H   0  0  0  0  0  0  0  0  0  0  0  0
   13.1228   40.0614   11.5776 H   0  0  0  0  0  0  0  0  0  0  0  0
   13.9928   42.1810   11.1295 H   0  0  0  0  0  0  0  0  0  0  0  0
   13.7815   44.6693   11.1983 H   0  0  0  0  0  0  0  0  0  0  0  0
   11.9603   45.7379   12.5435 H   0  0  0  0  0  0  0  0  0  0  0  0
   10.0431   45.5591   13.9997 H   0  0  0  0  0  0  0  0  0  0  0  0
    8.4077   44.1693   15.2926 H   0  0  0  0  0  0  0  0  0  0  0  0
    8.5793   41.6691   15.2437 H   0  0  0  0  0  0  0  0  0  0  0  0
   10.3857   40.5573   13.9183 H   0  0  0  0  0  0  0  0  0  0  0  0
   12.3416   38.0312   14.2082 H   0  0  0  0  0  0  0  0  0  0  0  0
   11.2008   35.9983   15.1342 H   0  0  0  0  0  0  0  0  0  0  0  0
    7.9406   36.5580   12.3299 H   0  0  0  0  0  0  0  0  0  0  0  0
  1  2  1  0
  2  3  1  0
  3  4  1  0
  4  5  2  0
  4  6  1  0
  6  7  1  0
  6  8  1  0
  8  9  1  0
  9 10  2  0
 10 11  1  0
 11 12  2  0
 11 13  1  0
 10 14  1  0
 14 15  1  0
 15 16  1  0
 16 17  2  0
 17 18  1  0
 18 19  2  0
 19 20  1  0
 20 21  2  0
 21 22  1  0
 22 23  2  0
 23 24  1  0
 24 25  2  0
 14 26  1  0
 26 27  2  0
 27 28  1  0
 28 29  2  0
 29 30  1  0
 29 31  1  0
 31 32  2  0
 32  9  1  0
 25 16  1  0
 32 26  1  0
 25 20  1  0
  1 33  1  0
  1 34  1  0
  1 35  1  0
  2 36  1  0
  2 37  1  0
  7 38  1  0
  7 39  1  0
  7 40  1  0
  8 41  1  0
  8 42  1  0
 15 43  1  0
 15 44  1  0
 17 45  1  0
 18 46  1  0
 19 47  1  0
 21 48  1  0
 22 49  1  0
 23 50  1  0
 24 51  1  0
 27 52  1  0
 28 53  1  0
 31 54  1  0
M  CHG  1  13  -1
M  END
>  <meeko>  (497) 
{"free_energy": -3.93, "intermolecular_energy": -6.32, "internal_energy": -2.1, "cluster_size": 16, "cluster_id": 119, "rank_in_cluster": 15}

$$$$

     RDKit          3D

 54 57  0  0  0  0  0  0  0  0999 V2000
    8.0210   37.9970    8.6270 C   0  0  0  0  0  0  0  0  0  0  0  0
    8.1510   39.5040    8.8660 C   0  0  0  0  0  0  0  0  0  0  0  0
    9.5100   39.8210    9.1190 O   0  0  0  0  0  0  0  0  0  0  0  0
    9.8250   40.9080    9.8550 C   0  0  0  0  0  0  0  0  0  0  0  0
   10.5800   41.7990    9.4610 O   0  0  0  0  0  0  0  0  0  0  0  0
    9.1740   40.8670   11.0950 N   0  0  0  0  0  0  0  0  0  0  0  0
    8.0900   41.7950   11.4380 C   0  0  0  0  0  0  0  0  0  0  0  0
    9.5680   39.9040   12.1310 C   0  0  0  0  0  0  0  0  0  0  0  0
   11.0520   39.6210   12.1140 C   0  0  0  0  0  0  0  0  0  0  0  0
   11.7510   38.7050   11.3480 C   0  0  0  0  0  0  0  0  0  0  0  0
   11.2540   37.7630   10.2980 C   0  0  0  0  0  0  0  0  0  0  0  0
   11.3750   38.0840    9.0960 O   0  0  0  0  0  0  0  0  0  0  0  0
   10.7090   36.6840   10.6170 O   0  0  0  0  0  1  0  0  0  0  0  0
   13.1130   38.7480   11.7180 N   0  0  0  0  0  0  0  0  0  0  0  0
   14.2290   37.9680   11.1750 C   0  0  0  0  0  0  0  0  0  0  0  0
   15.3680   38.8040   10.5760 C   0  0  0  0  0  0  0  0  0  0  0  0
   16.6730   38.7540   11.1280 C   0  0  0  0  0  0  0  0  0  0  0  0
   17.7190   39.5170   10.5830 C   0  0  0  0  0  0  0  0  0  0  0  0
   17.4800   40.3470    9.4760 C   0  0  0  0  0  0  0  0  0  0  0  0
   16.1920   40.4160    8.9110 C   0  0  0  0  0  0  0  0  0  0  0  0
   15.9700   41.2550    7.8000 C   0  0  0  0  0  0  0  0  0  0  0  0
   14.6920   41.3400    7.2190 C   0  0  0  0  0  0  0  0  0  0  0  0
   13.6320   40.5830    7.7500 C   0  0  0  0  0  0  0  0  0  0  0  0
   13.8470   39.7430    8.8590 C   0  0  0  0  0  0  0  0  0  0  0  0
   15.1280   39.6460    9.4560 C   0  0  0  0  0  0  0  0  0  0  0  0
   13.2840   39.6910   12.7220 C   0  0  0  0  0  0  0  0  0  0  0  0
   14.4270   40.1040   13.4390 C   0  0  0  0  0  0  0  0  0  0  0  0
   14.3160   41.1060   14.4170 C   0  0  0  0  0  0  0  0  0  0  0  0
   13.0650   41.6930   14.6750 C   0  0  0  0  0  0  0  0  0  0  0  0
   12.9530   42.6620   15.6140 F   0  0  0  0  0  0  0  0  0  0  0  0
   11.9280   41.2730   13.9580 C   0  0  0  0  0  0  0  0  0  0  0  0
   12.0070   40.2610   12.9710 C   0  0  0  0  0  0  0  0  0  0  0  0
    7.9760   37.4749    9.5942 H   0  0  0  0  0  0  0  0  0  0  0  0
    7.1020   37.7940    8.0576 H   0  0  0  0  0  0  0  0  0  0  0  0
    8.8917   37.6396    8.0576 H   0  0  0  0  0  0  0  0  0  0  0  0
    7.8060   40.0489    7.9749 H   0  0  0  0  0  0  0  0  0  0  0  0
    7.5366   39.7952    9.7308 H   0  0  0  0  0  0  0  0  0  0  0  0
    8.0033   41.8692   12.5321 H   0  0  0  0  0  0  0  0  0  0  0  0
    8.3112   42.7879   11.0195 H   0  0  0  0  0  0  0  0  0  0  0  0
    7.1430   41.4234   11.0195 H   0  0  0  0  0  0  0  0  0  0  0  0
    9.2967   40.3125   13.1157 H   0  0  0  0  0  0  0  0  0  0  0  0
    9.0422   38.9589   11.9304 H   0  0  0  0  0  0  0  0  0  0  0  0
   14.6455   37.3551   11.9880 H   0  0  0  0  0  0  0  0  0  0  0  0
   13.8159   37.3708   10.3487 H   0  0  0  0  0  0  0  0  0  0  0  0
   16.8694   38.1079   11.9963 H   0  0  0  0  0  0  0  0  0  0  0  0
   18.7255   39.4642   11.0236 H   0  0  0  0  0  0  0  0  0  0  0  0
   18.2997   40.9439    9.0497 H   0  0  0  0  0  0  0  0  0  0  0  0
   16.8002   41.8459    7.3856 H   0  0  0  0  0  0  0  0  0  0  0  0
   14.5220   41.9960    6.3526 H   0  0  0  0  0  0  0  0  0  0  0  0
   12.6316   40.6476    7.2971 H   0  0  0  0  0  0  0  0  0  0  0  0
   13.0111   39.1555    9.2665 H   0  0  0  0  0  0  0  0  0  0  0  0
   15.4036   39.6419   13.2323 H   0  0  0  0  0  0  0  0  0  0  0  0
   15.2044   41.4301   14.9788 H   0  0  0  0  0  0  0  0  0  0  0  0
   10.9558   41.7421   14.1697 H   0  0  0  0  0  0  0  0  0  0  0  0
  1  2  1  0
  2  3  1  0
  3  4  1  0
  4  5  2  0
  4  6  1  0
  6  7  1  0
  6  8  1  0
  8  9  1  0
  9 10  2  0
 10 11  1  0
 11 12  2  0
 11 13  1  0
 10 14  1  0
 14 15  1  0
 15 16  1  0
 16 17  2  0
 17 18  1  0
 18 19  2  0
 19 20  1  0
 20 21  2  0
 21 22  1  0
 22 23  2  0
 23 24  1  0
 24 25  2  0
 14 26  1  0
 26 27  2  0
 27 28  1  0
 28 29  2  0
 29 30  1  0
 29 31  1  0
 31 32  2  0
 32  9  1  0
 25 16  1  0
 32 26  1  0
 25 20  1  0
  1 33  1  0
  1 34  1  0
  1 35  1  0
  2 36  1  0
  2 37  1  0
  7 38  1  0
  7 39  1  0
  7 40  1  0
  8 41  1  0
  8 42  1  0
 15 43  1  0
 15 44  1  0
 17 45  1  0
 18 46  1  0
 19 47  1  0
 21 48  1  0
 22 49  1  0
 23 50  1  0
 24 51  1  0
 27 52  1  0
 28 53  1  0
 31 54  1  0
M  CHG  1  13  -1
M  END
>  <meeko>  (498) 
{"free_energy": -4.19, "intermolecular_energy": -6.58, "internal_energy": -2.27, "cluster_size": 6, "cluster_id": 192, "rank_in_cluster": 5}

$$$$

     RDKit          3D

 54 57  0  0  0  0  0  0  0  0999 V2000
    6.6410   44.4800   13.1450 C   0  0  0  0  0  0  0  0  0  0  0  0
    8.1550   44.2770   13.2520 C   0  0  0  0  0  0  0  0  0  0  0  0
    8.4340   42.8890   13.3370 O   0  0  0  0  0  0  0  0  0  0  0  0
    8.3380   42.1110   12.2370 C   0  0  0  0  0  0  0  0  0  0  0  0
    7.2790   41.9110   11.6390 O   0  0  0  0  0  0  0  0  0  0  0  0
    9.5920   41.5910   11.8920 N   0  0  0  0  0  0  0  0  0  0  0  0
   10.8130   41.9510   12.6200 C   0  0  0  0  0  0  0  0  0  0  0  0
    9.7490   40.6740   10.7550 C   0  0  0  0  0  0  0  0  0  0  0  0
    9.6100   39.2260   11.1640 C   0  0  0  0  0  0  0  0  0  0  0  0
   10.1330   38.5850   12.2720 C   0  0  0  0  0  0  0  0  0  0  0  0
   10.9520   39.1370   13.3970 C   0  0  0  0  0  0  0  0  0  0  0  0
   10.3670   39.5240   14.4310 O   0  0  0  0  0  0  0  0  0  0  0  0
   12.1940   39.2280   13.2950 O   0  0  0  0  0  1  0  0  0  0  0  0
    9.7960   37.2160   12.2070 N   0  0  0  0  0  0  0  0  0  0  0  0
   10.1220   36.1510   13.1590 C   0  0  0  0  0  0  0  0  0  0  0  0
    9.5160   36.3290   14.5580 C   0  0  0  0  0  0  0  0  0  0  0  0
    8.1130   36.2990   14.7510 C   0  0  0  0  0  0  0  0  0  0  0  0
    7.5540   36.4620   16.0300 C   0  0  0  0  0  0  0  0  0  0  0  0
    8.3890   36.6610   17.1410 C   0  0  0  0  0  0  0  0  0  0  0  0
    9.7870   36.6970   16.9750 C   0  0  0  0  0  0  0  0  0  0  0  0
   10.6100   36.8980   18.1020 C   0  0  0  0  0  0  0  0  0  0  0  0
   12.0090   36.9370   17.9600 C   0  0  0  0  0  0  0  0  0  0  0  0
   12.5870   36.7750   16.6890 C   0  0  0  0  0  0  0  0  0  0  0  0
   11.7700   36.5750   15.5590 C   0  0  0  0  0  0  0  0  0  0  0  0
   10.3600   36.5320   15.6850 C   0  0  0  0  0  0  0  0  0  0  0  0
    9.0560   36.9820   11.0540 C   0  0  0  0  0  0  0  0  0  0  0  0
    8.4970   35.8030   10.5200 C   0  0  0  0  0  0  0  0  0  0  0  0
    7.7740   35.8530    9.3170 C   0  0  0  0  0  0  0  0  0  0  0  0
    7.6110   37.0810    8.6530 C   0  0  0  0  0  0  0  0  0  0  0  0
    6.9110   37.1370    7.4950 F   0  0  0  0  0  0  0  0  0  0  0  0
    8.1750   38.2540    9.1910 C   0  0  0  0  0  0  0  0  0  0  0  0
    8.9150   38.2330   10.3980 C   0  0  0  0  0  0  0  0  0  0  0  0
    6.2067   44.5382   14.1539 H   0  0  0  0  0  0  0  0  0  0  0  0
    6.4337   45.4140   12.6021 H   0  0  0  0  0  0  0  0  0  0  0  0
    6.1950   43.6336   12.6021 H   0  0  0  0  0  0  0  0  0  0  0  0
    8.6465   44.6974   12.3622 H   0  0  0  0  0  0  0  0  0  0  0  0
    8.5338   44.7861   14.1505 H   0  0  0  0  0  0  0  0  0  0  0  0
   10.6245   41.8954   13.7023 H   0  0  0  0  0  0  0  0  0  0  0  0
   11.6192   41.2523   12.3519 H   0  0  0  0  0  0  0  0  0  0  0  0
   11.1112   42.9753   12.3519 H   0  0  0  0  0  0  0  0  0  0  0  0
    8.9786   40.9054   10.0047 H   0  0  0  0  0  0  0  0  0  0  0  0
   10.7610   40.8133   10.3470 H   0  0  0  0  0  0  0  0  0  0  0  0
    9.7558   35.1994   12.7462 H   0  0  0  0  0  0  0  0  0  0  0  0
   11.2139   36.1766   13.2895 H   0  0  0  0  0  0  0  0  0  0  0  0
    7.4507   36.1457   13.8862 H   0  0  0  0  0  0  0  0  0  0  0  0
    6.4622   36.4337   16.1607 H   0  0  0  0  0  0  0  0  0  0  0  0
    7.9509   36.7889   18.1419 H   0  0  0  0  0  0  0  0  0  0  0  0
   10.1564   37.0248   19.0961 H   0  0  0  0  0  0  0  0  0  0  0  0
   12.6487   37.0938   18.8410 H   0  0  0  0  0  0  0  0  0  0  0  0
   13.6808   36.8045   16.5764 H   0  0  0  0  0  0  0  0  0  0  0  0
   12.2320   36.4509   14.5684 H   0  0  0  0  0  0  0  0  0  0  0  0
    8.6270   34.8451   11.0450 H   0  0  0  0  0  0  0  0  0  0  0  0
    7.3373   34.9352    8.8963 H   0  0  0  0  0  0  0  0  0  0  0  0
    8.0375   39.2083    8.6614 H   0  0  0  0  0  0  0  0  0  0  0  0
  1  2  1  0
  2  3  1  0
  3  4  1  0
  4  5  2  0
  4  6  1  0
  6  7  1  0
  6  8  1  0
  8  9  1  0
  9 10  2  0
 10 11  1  0
 11 12  2  0
 11 13  1  0
 10 14  1  0
 14 15  1  0
 15 16  1  0
 16 17  2  0
 17 18  1  0
 18 19  2  0
 19 20  1  0
 20 21  2  0
 21 22  1  0
 22 23  2  0
 23 24  1  0
 24 25  2  0
 14 26  1  0
 26 27  2  0
 27 28  1  0
 28 29  2  0
 29 30  1  0
 29 31  1  0
 31 32  2  0
 32  9  1  0
 25 16  1  0
 32 26  1  0
 25 20  1  0
  1 33  1  0
  1 34  1  0
  1 35  1  0
  2 36  1  0
  2 37  1  0
  7 38  1  0
  7 39  1  0
  7 40  1  0
  8 41  1  0
  8 42  1  0
 15 43  1  0
 15 44  1  0
 17 45  1  0
 18 46  1  0
 19 47  1  0
 21 48  1  0
 22 49  1  0
 23 50  1  0
 24 51  1  0
 27 52  1  0
 28 53  1  0
 31 54  1  0
M  CHG  1  13  -1
M  END
>  <meeko>  (499) 
{"free_energy": -6.05, "intermolecular_energy": -8.44, "internal_energy": -1.72, "cluster_size": 253, "cluster_id": 8, "rank_in_cluster": 133}

$$$$

     RDKit          3D

 54 57  0  0  0  0  0  0  0  0999 V2000
   10.3580   45.9040   13.9910 C   0  0  0  0  0  0  0  0  0  0  0  0
   10.9390   45.0600   12.8540 C   0  0  0  0  0  0  0  0  0  0  0  0
   12.0640   44.3410   13.3340 O   0  0  0  0  0  0  0  0  0  0  0  0
   12.3390   43.1120   12.8490 C   0  0  0  0  0  0  0  0  0  0  0  0
   12.5150   42.8790   11.6520 O   0  0  0  0  0  0  0  0  0  0  0  0
   12.3970   42.1750   13.8890 N   0  0  0  0  0  0  0  0  0  0  0  0
   13.2290   42.3820   15.0800 C   0  0  0  0  0  0  0  0  0  0  0  0
   11.6440   40.9160   13.8230 C   0  0  0  0  0  0  0  0  0  0  0  0
   10.5440   40.9600   12.7880 C   0  0  0  0  0  0  0  0  0  0  0  0
   10.4690   40.3010   11.5740 C   0  0  0  0  0  0  0  0  0  0  0  0
   11.4270   39.3340   10.9530 C   0  0  0  0  0  0  0  0  0  0  0  0
   11.5510   39.3270    9.7090 O   0  0  0  0  0  0  0  0  0  0  0  0
   12.0770   38.5370   11.6630 O   0  0  0  0  0  1  0  0  0  0  0  0
    9.2860   40.6970   10.9140 N   0  0  0  0  0  0  0  0  0  0  0  0
    8.7790   40.2570    9.6110 C   0  0  0  0  0  0  0  0  0  0  0  0
    8.4820   38.7550    9.5090 C   0  0  0  0  0  0  0  0  0  0  0  0
    8.8300   37.8720   10.5620 C   0  0  0  0  0  0  0  0  0  0  0  0
    8.5600   36.4960   10.4720 C   0  0  0  0  0  0  0  0  0  0  0  0
    7.9380   35.9760    9.3250 C   0  0  0  0  0  0  0  0  0  0  0  0
    7.5840   36.8320    8.2650 C   0  0  0  0  0  0  0  0  0  0  0  0
    6.9600   36.2920    7.1210 C   0  0  0  0  0  0  0  0  0  0  0  0
    6.5990   37.1280    6.0500 C   0  0  0  0  0  0  0  0  0  0  0  0
    6.8590   38.5080    6.1210 C   0  0  0  0  0  0  0  0  0  0  0  0
    7.4820   39.0530    7.2600 C   0  0  0  0  0  0  0  0  0  0  0  0
    7.8530   38.2250    8.3490 C   0  0  0  0  0  0  0  0  0  0  0  0
    8.6040   41.6110   11.7070 C   0  0  0  0  0  0  0  0  0  0  0  0
    7.3960   42.3110   11.5080 C   0  0  0  0  0  0  0  0  0  0  0  0
    6.9210   43.1860   12.4980 C   0  0  0  0  0  0  0  0  0  0  0  0
    7.6540   43.3580   13.6850 C   0  0  0  0  0  0  0  0  0  0  0  0
    7.2000   44.1970   14.6460 F   0  0  0  0  0  0  0  0  0  0  0  0
    8.8620   42.6580   13.8760 C   0  0  0  0  0  0  0  0  0  0  0  0
    9.3690   41.7740   12.8930 C   0  0  0  0  0  0  0  0  0  0  0  0
   10.6557   45.4716   14.9577 H   0  0  0  0  0  0  0  0  0  0  0  0
   10.7402   46.9328   13.9162 H   0  0  0  0  0  0  0  0  0  0  0  0
    9.2606   45.9142   13.9162 H   0  0  0  0  0  0  0  0  0  0  0  0
   10.1769   44.3531   12.4941 H   0  0  0  0  0  0  0  0  0  0  0  0
   11.2458   45.7164   12.0263 H   0  0  0  0  0  0  0  0  0  0  0  0
   12.6201   42.2305   15.9835 H   0  0  0  0  0  0  0  0  0  0  0  0
   14.0621   41.6638   15.0746 H   0  0  0  0  0  0  0  0  0  0  0  0
   13.6284   43.4069   15.0746 H   0  0  0  0  0  0  0  0  0  0  0  0
   12.3379   40.1016   13.5675 H   0  0  0  0  0  0  0  0  0  0  0  0
   11.1762   40.7515   14.8049 H   0  0  0  0  0  0  0  0  0  0  0  0
    7.8478   40.8046    9.4036 H   0  0  0  0  0  0  0  0  0  0  0  0
    9.5766   40.4647    8.8826 H   0  0  0  0  0  0  0  0  0  0  0  0
    9.3189   38.2701   11.4634 H   0  0  0  0  0  0  0  0  0  0  0  0
    8.8357   35.8261   11.2998 H   0  0  0  0  0  0  0  0  0  0  0  0
    7.7273   34.8987    9.2549 H   0  0  0  0  0  0  0  0  0  0  0  0
    6.7551   35.2126    7.0667 H   0  0  0  0  0  0  0  0  0  0  0  0
    6.1142   36.7035    5.1585 H   0  0  0  0  0  0  0  0  0  0  0  0
    6.5750   39.1635    5.2846 H   0  0  0  0  0  0  0  0  0  0  0  0
    7.6831   40.1335    7.3052 H   0  0  0  0  0  0  0  0  0  0  0  0
    6.8261   42.1715   10.5775 H   0  0  0  0  0  0  0  0  0  0  0  0
    5.9797   43.7343   12.3454 H   0  0  0  0  0  0  0  0  0  0  0  0
    9.4242   42.8017   14.8105 H   0  0  0  0  0  0  0  0  0  0  0  0
  1  2  1  0
  2  3  1  0
  3  4  1  0
  4  5  2  0
  4  6  1  0
  6  7  1  0
  6  8  1  0
  8  9  1  0
  9 10  2  0
 10 11  1  0
 11 12  2  0
 11 13  1  0
 10 14  1  0
 14 15  1  0
 15 16  1  0
 16 17  2  0
 17 18  1  0
 18 19  2  0
 19 20  1  0
 20 21  2  0
 21 22  1  0
 22 23  2  0
 23 24  1  0
 24 25  2  0
 14 26  1  0
 26 27  2  0
 27 28  1  0
 28 29  2  0
 29 30  1  0
 29 31  1  0
 31 32  2  0
 32  9  1  0
 25 16  1  0
 32 26  1  0
 25 20  1  0
  1 33  1  0
  1 34  1  0
  1 35  1  0
  2 36  1  0
  2 37  1  0
  7 38  1  0
  7 39  1  0
  7 40  1  0
  8 41  1  0
  8 42  1  0
 15 43  1  0
 15 44  1  0
 17 45  1  0
 18 46  1  0
 19 47  1  0
 21 48  1  0
 22 49  1  0
 23 50  1  0
 24 51  1  0
 27 52  1  0
 28 53  1  0
 31 54  1  0
M  CHG  1  13  -1
M  END
>  <meeko>  (500) 
{"free_energy": -6.02, "intermolecular_energy": -8.4, "internal_energy": -1.9, "cluster_size": 74, "cluster_id": 18, "rank_in_cluster": 20}

$$$$
